/*---------------------------------------------------------------------------*\
| =========                 |                                                 |
| \\      /  F ield         | OpenFOAM: The Open Source CFD Toolbox           |
|  \\    /   O peration     | Version:  2512                                  |
|   \\  /    A nd           | Website:  www.openfoam.com                      |
|    \\/     M anipulation  |                                                 |
\*---------------------------------------------------------------------------*/
Build  : _87ed40d2-20251219 OPENFOAM=2512 version=2512
Arch   : "LSB;label=32;scalar=64"
Exec   : snappyHexMesh -overwrite
Date   : Mar 20 2026
Time   : 23:14:00
Host   : fedora
PID    : 11224
I/O    : uncollated
Case   : /home/syphonic/OpenFOAM/run/motorBike
nProcs : 1
trapFpe: Floating point exception trapping enabled (FOAM_SIGFPE).
memory pool : not available
fileModificationChecking : Monitoring run-time modified files using timeStampMaster (fileModificationSkew 5, maxFileModificationPolls 20)
allowSystemOperations : Allowing user-supplied system call operations

// * * * * * * * * * * * * * * * * * * * * * * * * * * * * * * * * * * * * * //
Create time

Create mesh for time = 0

Read mesh in = 0 s

Overall mesh bounding box  : (-5 -4 0) (15 4 8)
Relative tolerance         : 1e-06
Absolute matching distance : 2.29783e-05

Reading refinement surfaces.
Read refinement surfaces in = 0.44 s

Reading refinement shells.
Refinement level 4 for all cells inside refinementBox
Read refinement shells in = 0 s

Setting refinement level of surface to be consistent with shells.
For geometry motorBike.obj detected 0 uncached triangles out of 331653
Checked shell refinement in = 1.43 s

Reading features.
Read edgeMesh motorBike.eMesh
    points      : 20665
    edges       : 20867
    boundingBox : (-0.241214 -0.337971 -4.232e-05) (1.75115 0.329368 1.21979)

Refinement level according to distance to "motorBike.eMesh" (20665 points, 20867 edges).
    level 6 for all cells within 0 metre.
Read features in = 0.04 s


Determining initial surface intersections
-----------------------------------------

Edge intersection testing:
    Number of edges             : 4224
    Number of edges to retest   : 0
    Number of intersected edges : 0
Edge intersection testing:
    Number of edges             : 4224
    Number of edges to retest   : 4224
    Number of intersected edges : 2
Calculated surface intersections in = 0.01 s

Initial mesh : cells:1280  faces:4224  points:1701
Cells per refinement level:
    0	1280
Setting refinement level of surface to be consistent with curvature.
Checked curvature refinement in = 0 s


Adding patches for surface regions
----------------------------------

Patch Type                Region                        
----- ----                ------                        
motorBike:

5     wall                motorBike_frt-fairing:001%1   
6     wall                motorBike_windshield:002%2    
7     wall                motorBike_rr-wh-rim:005%5     
8     wall                motorBike_rr-wh-rim:010%10    
9     wall                motorBike_fr-wh-rim:011%11    
10    wall                motorBike_fr-wh-brake-disk:012%12
11    wall                motorBike_frame:016-shadow%13 
12    wall                motorBike_rear-susp:014%14    
13    wall                motorBike_rear-susp:014-shadow%15
14    wall                motorBike_frame:016%16        
15    wall                motorBike_rr-wh-rim:005-shadow%17
16    wall                motorBike_rr-wh-chain-hub:022%22
17    wall                motorBike_rearseat%24         
18    wall                motorBike_frt-fairing%25      
19    wall                motorBike_windshield%26       
20    wall                motorBike_headlights%27       
21    wall                motorBike_driversseat%28      
22    wall                motorBike_rear-body%29        
23    wall                motorBike_fuel-tank%30        
24    wall                motorBike_exhaust%31          
25    wall                motorBike_rr-wh-rim%32        
26    wall                motorBike_fr-mud-guard%33     
27    wall                motorBike_fr-wh-rim%34        
28    wall                motorBike_fr-wh-brake-disk%35 
29    wall                motorBike_fr-brake-caliper%36 
30    wall                motorBike_fr-wh-tyre%37       
31    wall                motorBike_hbars%38            
32    wall                motorBike_fr-forks%39         
33    wall                motorBike_chain%40            
34    wall                motorBike_rr-wh-tyre%41       
35    wall                motorBike_square-dial%42      
36    wall                motorBike_round-dial%43       
37    wall                motorBike_dial-holder%44      
38    wall                motorBike_rear-susp%45        
39    wall                motorBike_rear-brake-lights%46
40    wall                motorBike_rear-light-bracket%47
41    wall                motorBike_frame%48            
42    wall                motorBike_rear-mud-guard%49   
43    wall                motorBike_rear-susp-spring-damp%50
44    wall                motorBike_fairing-inner-plate%51
45    wall                motorBike_clutch-housing%52   
46    wall                motorBike_radiator%53         
47    wall                motorBike_water-pipe%54       
48    wall                motorBike_water-pump%55       
49    wall                motorBike_engine%56           
50    wall                motorBike_rear-shock-link%57  
51    wall                motorBike_rear-brake-fluid-pot-bracket%58
52    wall                motorBike_rear-brake-fluid-pot%59
53    wall                motorBike_footpeg%60          
54    wall                motorBike_rr-wh-chain-hub%61  
55    wall                motorBike_rear-brake-caliper%62
56    wall                motorBike_rider-helmet%65     
57    wall                motorBike_rider-visor%66      
58    wall                motorBike_rider-boots%67      
59    wall                motorBike_rider-gloves%68     
60    wall                motorBike_rider-body%69       
61    wall                motorBike_frame:0%70          
62    wall                motorBike_frt-fairing:001-shadow%74
63    wall                motorBike_windshield-shadow%75
64    wall                motorBike_fr-mud-guard-shadow%81
65    wall                motorBike_fr-wh-brake-disk-shadow%83
66    wall                motorBike_rear-mud-guard-shadow%84
67    wall                motorBike_rear-susp-spring-damp-shadow%85
68    wall                motorBike_radiator-shadow%86  
69    wall                motorBike_rear-shock-link-shadow%87
70    wall                motorBike_rear-brake-fluid-pot-bracket-shadow%88
71    wall                motorBike_rr-wh-chain-hub-shadow%89

Added patches in = 0.01 s

Edge intersection testing:
    Number of edges             : 4224
    Number of edges to retest   : 0
    Number of intersected edges : 2
Decomposition method none [1]

Refinement phase
----------------

Found point (3.0001 3.0001 0.43) in cell 148 on processor 0

Feature refinement iteration 0
------------------------------

Marked for refinement due to explicit features             : 10 cells.
Determined cells to refine in = 0.03 s
Selected for feature refinement : 10 cells (out of 1280)
Edge intersection testing:
    Number of edges             : 4479
    Number of edges to retest   : 388
    Number of intersected edges : 26
Refined mesh in = 0.01 s
After refinement feature refinement iteration 0 : cells:1350  faces:4479  points:1823
Cells per refinement level:
    0	1270
    1	80

Feature refinement iteration 1
------------------------------

Marked for refinement due to explicit features             : 26 cells.
Determined cells to refine in = 0.04 s
Selected for feature refinement : 32 cells (out of 1350)
Edge intersection testing:
    Number of edges             : 5259
    Number of edges to retest   : 1149
    Number of intersected edges : 127
Refined mesh in = 0.01 s
After refinement feature refinement iteration 1 : cells:1574  faces:5259  points:2167
Cells per refinement level:
    0	1264
    1	102
    2	208

Feature refinement iteration 2
------------------------------

Marked for refinement due to explicit features             : 100 cells.
Determined cells to refine in = 0.04 s
Selected for feature refinement : 120 cells (out of 1574)
Edge intersection testing:
    Number of edges             : 8103
    Number of edges to retest   : 3798
    Number of intersected edges : 726
Refined mesh in = 0.02 s
After refinement feature refinement iteration 2 : cells:2414  faces:8103  points:3354
Cells per refinement level:
    0	1260
    1	118
    2	236
    3	800

Feature refinement iteration 3
------------------------------

Marked for refinement due to explicit features             : 447 cells.
Determined cells to refine in = 0.07 s
Selected for feature refinement : 539 cells (out of 2414)
Edge intersection testing:
    Number of edges             : 20616
    Number of edges to retest   : 16350
    Number of intersected edges : 3115
Refined mesh in = 0.06 s
After refinement feature refinement iteration 3 : cells:6187  faces:20616  points:8337
Cells per refinement level:
    0	1252
    1	159
    2	359
    3	841
    4	3576

Feature refinement iteration 4
------------------------------

Marked for refinement due to explicit features             : 1726 cells.
Determined cells to refine in = 0.13 s
Selected for feature refinement : 2001 cells (out of 6187)
Edge intersection testing:
    Number of edges             : 68094
    Number of edges to retest   : 62382
    Number of intersected edges : 11403
Refined mesh in = 0.2 s
After refinement feature refinement iteration 4 : cells:20194  faces:68094  points:27936
Cells per refinement level:
    0	1250
    1	168
    2	380
    3	890
    4	3698
    5	13808

Feature refinement iteration 5
------------------------------

Marked for refinement due to explicit features             : 5267 cells.
Determined cells to refine in = 0.45 s
Selected for feature refinement : 6710 cells (out of 20194)
Edge intersection testing:
    Number of edges             : 230619
    Number of edges to retest   : 222164
    Number of intersected edges : 36494
Refined mesh in = 0.73 s
After refinement feature refinement iteration 5 : cells:67164  faces:230619  points:97962
Cells per refinement level:
    0	1249
    1	175
    2	371
    3	888
    4	3516
    5	18829
    6	42136

Feature refinement iteration 6
------------------------------

Marked for refinement due to explicit features             : 0 cells.
Determined cells to refine in = 1.3 s
Selected for feature refinement : 0 cells (out of 67164)
Stopping refining since too few cells selected.


Surface refinement iteration 0
------------------------------

Marked for refinement due to surface intersection          : 708 cells.
Marked for refinement due to curvature/regions             : 5572 cells.
Determined cells to refine in = 0.28 s
Selected for refinement : 6695 cells (out of 67164)
Edge intersection testing:
    Number of edges             : 378015
    Number of edges to retest   : 295136
    Number of intersected edges : 50038
Refined mesh in = 1.04 s
After refinement surface refinement iteration 0 : cells:114029  faces:378015  points:150294
Cells per refinement level:
    0	1246
    1	196
    2	366
    3	1015
    4	3373
    5	21121
    6	86712

Surface refinement iteration 1
------------------------------

Marked for refinement due to surface intersection          : 99 cells.
Marked for refinement due to curvature/regions             : 1340 cells.
Determined cells to refine in = 0.33 s
Selected for refinement : 1544 cells (out of 114029)
Edge intersection testing:
    Number of edges             : 412890
    Number of edges to retest   : 81147
    Number of intersected edges : 53698
Refined mesh in = 0.69 s
After refinement surface refinement iteration 1 : cells:124837  faces:412890  points:163365
Cells per refinement level:
    0	1246
    1	196
    2	362
    3	1024
    4	3380
    5	21197
    6	97432

Surface refinement iteration 2
------------------------------

Marked for refinement due to surface intersection          : 0 cells.
Marked for refinement due to curvature/regions             : 105 cells.
Determined cells to refine in = 0.26 s
Selected for refinement : 123 cells (out of 124837)
Edge intersection testing:
    Number of edges             : 415623
    Number of edges to retest   : 8752
    Number of intersected edges : 53893
Refined mesh in = 0.42 s
After refinement surface refinement iteration 2 : cells:125698  faces:415623  points:164343
Cells per refinement level:
    0	1246
    1	196
    2	362
    3	1022
    4	3380
    5	21220
    6	98272

Surface refinement iteration 3
------------------------------

Marked for refinement due to surface intersection          : 0 cells.
Marked for refinement due to curvature/regions             : 4 cells.
Determined cells to refine in = 0.2 s
Selected for refinement : 4 cells (out of 125698)
Edge intersection testing:
    Number of edges             : 415704
    Number of edges to retest   : 345
    Number of intersected edges : 53899
Refined mesh in = 0.35 s
After refinement surface refinement iteration 3 : cells:125726  faces:415704  points:164368
Cells per refinement level:
    0	1246
    1	196
    2	362
    3	1022
    4	3380
    5	21216
    6	98304

Surface refinement iteration 4
------------------------------

Marked for refinement due to surface intersection          : 0 cells.
Marked for refinement due to curvature/regions             : 0 cells.
Determined cells to refine in = 0.2 s
Selected for refinement : 0 cells (out of 125726)
Stopping refining since too few cells selected.


Removing mesh beyond surface intersections
------------------------------------------

Setting cellZones according to locationsInMesh:
Location : (3.0001 3.0001 0.43)
    cellZone : none

For cellZone none found point (3.0001 3.0001 0.43) in global region 0 out of 46 regions.
--> FOAM Warning : 
    From void Foam::meshRefinement::nearestFace(const Foam::labelUList&, const Foam::bitSet&, Foam::autoPtr<Foam::mapDistribute>&, Foam::labelList&, Foam::label) const
    in file meshRefinement/meshRefinement.C at line 526
    Did not visit some faces, e.g. face 0 at (-4 -3.5 0.5)
Keeping all cells containing inside points
Selected for keeping : 118675 cells.
Edge intersection testing:
    Number of edges             : 401220
    Number of edges to retest   : 18608
    Number of intersected edges : 53899

Shell refinement iteration 0
----------------------------

Marked for refinement due to distance to explicit features : 0 cells.
Marked for refinement due to refinement shells             : 1324 cells.
Determined cells to refine in = 0.63 s
Selected for internal refinement : 15302 cells (out of 118675)
Edge intersection testing:
    Number of edges             : 718926
    Number of edges to retest   : 619502
    Number of intersected edges : 56826
Refined mesh in = 1.09 s
After refinement shell refinement iteration 0 : cells:225789  faces:718926  points:265124
Cells per refinement level:
    0	1168
    1	689
    2	1105
    3	2440
    4	9946
    5	18559
    6	191882

Shell refinement iteration 1
----------------------------

Marked for refinement due to distance to explicit features : 0 cells.
Marked for refinement due to refinement shells             : 2412 cells.
Determined cells to refine in = 0.21 s
Selected for internal refinement : 5072 cells (out of 225789)
Edge intersection testing:
    Number of edges             : 826839
    Number of edges to retest   : 246225
    Number of intersected edges : 57406
Refined mesh in = 0.88 s
After refinement shell refinement iteration 1 : cells:261293  faces:826839  points:302004
Cells per refinement level:
    0	1060
    1	1304
    2	2604
    3	4448
    4	24725
    5	22654
    6	204498

Shell refinement iteration 2
----------------------------

Marked for refinement due to distance to explicit features : 0 cells.
Marked for refinement due to refinement shells             : 3888 cells.
Determined cells to refine in = 0.2 s
Selected for internal refinement : 4602 cells (out of 261293)
Edge intersection testing:
    Number of edges             : 925860
    Number of edges to retest   : 140877
    Number of intersected edges : 57409
Refined mesh in = 0.82 s
After refinement shell refinement iteration 2 : cells:293507  faces:925860  points:336634
Cells per refinement level:
    0	996
    1	1560
    2	3436
    3	11232
    4	48164
    5	23549
    6	204570

Shell refinement iteration 3
----------------------------

Marked for refinement due to distance to explicit features : 0 cells.
Marked for refinement due to refinement shells             : 7912 cells.
Determined cells to refine in = 0.22 s
Selected for internal refinement : 8472 cells (out of 293507)
Edge intersection testing:
    Number of edges             : 1107786
    Number of edges to retest   : 224121
    Number of intersected edges : 57409
Refined mesh in = 0.95 s
After refinement shell refinement iteration 3 : cells:352811  faces:1107786  points:399994
Cells per refinement level:
    0	974
    1	1520
    2	4482
    3	9136
    4	108580
    5	23549
    6	204570

Shell refinement iteration 4
----------------------------

Marked for refinement due to distance to explicit features : 0 cells.
Marked for refinement due to refinement shells             : 2880 cells.
Determined cells to refine in = 0.23 s
Selected for internal refinement : 3404 cells (out of 352811)
Edge intersection testing:
    Number of edges             : 1179894
    Number of edges to retest   : 114050
    Number of intersected edges : 57409
Refined mesh in = 0.96 s
After refinement shell refinement iteration 4 : cells:376639  faces:1179894  points:424448
Cells per refinement level:
    0	936
    1	1740
    2	4752
    3	9472
    4	131620
    5	23549
    6	204570

Shell refinement iteration 5
----------------------------

Marked for refinement due to distance to explicit features : 0 cells.
Marked for refinement due to refinement shells             : 0 cells.
Determined cells to refine in = 0.22 s
Selected for internal refinement : 32 cells (out of 376639)
Edge intersection testing:
    Number of edges             : 1180572
    Number of edges to retest   : 2286
    Number of intersected edges : 57409
Refined mesh in = 0.96 s
After refinement shell refinement iteration 5 : cells:376863  faces:1180572  points:424678
Cells per refinement level:
    0	934
    1	1726
    2	4992
    3	9472
    4	131620
    5	23549
    6	204570

Shell refinement iteration 6
----------------------------

Marked for refinement due to distance to explicit features : 0 cells.
Marked for refinement due to refinement shells             : 0 cells.
Determined cells to refine in = 0.22 s
Selected for internal refinement : 6 cells (out of 376863)
Stopping refining since too few cells selected.


Dangling coarse cells refinement iteration 0
--------------------------------------------

Determined cells to refine in = 0.02 s
Selected for refinement : 106 cells (out of 376863)
Edge intersection testing:
    Number of edges             : 1182150
    Number of edges to retest   : 12775
    Number of intersected edges : 57413
Refined mesh in = 0.92 s
After refinement coarse cell refinement iteration 0 : cells:377605  faces:1182150  points:424886
Cells per refinement level:
    0	934
    1	1726
    2	4992
    3	9472
    4	131619
    5	23452
    6	205410

Dangling coarse cells refinement iteration 1
--------------------------------------------

Determined cells to refine in = 0.01 s
Selected for refinement : 10 cells (out of 377605)
Stopping refining since too few cells selected.


Dangling coarse cells refinement iteration 0
--------------------------------------------

Determined cells to refine in = 0.02 s
Selected for refinement : 20 cells (out of 377605)
Edge intersection testing:
    Number of edges             : 1182390
    Number of edges to retest   : 2614
    Number of intersected edges : 57411
Refined mesh in = 0.93 s
After refinement coarse cell refinement iteration 0 : cells:377745  faces:1182390  points:424906
Cells per refinement level:
    0	934
    1	1726
    2	4992
    3	9472
    4	131619
    5	23432
    6	205570

Dangling coarse cells refinement iteration 1
--------------------------------------------

Determined cells to refine in = 0.01 s
Selected for refinement : 0 cells (out of 377745)
Stopping refining since too few cells selected.


Refinement transition refinement iteration 0
--------------------------------------------

Determined cells to refine in = 0.02 s
Selected for refinement : 8 cells (out of 377745)
Edge intersection testing:
    Number of edges             : 1182552
    Number of edges to retest   : 875
    Number of intersected edges : 57422
Refined mesh in = 0.93 s
After refinement interface cell refinement iteration 0 : cells:377801  faces:1182552  points:424947
Cells per refinement level:
    0	934
    1	1726
    2	4992
    3	9472
    4	131619
    5	23424
    6	205634

Refinement transition refinement iteration 1
--------------------------------------------

Determined cells to refine in = 0.02 s
Selected for refinement : 0 cells (out of 377801)
Stopping refining since too few cells selected.


Splitting mesh at surface intersections
---------------------------------------

Introducing baffles for 57422 faces that are intersected by the surface.

Setting cellZones according to locationsInMesh:
Location : (3.0001 3.0001 0.43)
    cellZone : none

For cellZone none found point (3.0001 3.0001 0.43) in global region 0 out of 47 regions.
Edge intersection testing:
    Number of edges             : 1239919
    Number of edges to retest   : 309845
    Number of intersected edges : 114716
Created baffles in = 1.2 s


After introducing baffles : cells:377801  faces:1239919  points:424947
Cells per refinement level:
    0	934
    1	1726
    2	4992
    3	9472
    4	131619
    5	23424
    6	205634

Introducing baffles to block off problem cells
----------------------------------------------

markFacesOnProblemCells : marked 44271 additional internal faces to be converted into baffles.
Analyzed problem cells in = 0.74 s


Introducing baffles to delete problem cells.

Edge intersection testing:
    Number of edges             : 1284190
    Number of edges to retest   : 174274
    Number of intersected edges : 114716
Created baffles in = 0.82 s


After introducing baffles : cells:377801  faces:1284190  points:424947
Cells per refinement level:
    0	934
    1	1726
    2	4992
    3	9472
    4	131619
    5	23424
    6	205634
Setting cellZones according to locationsInMesh:
Location : (3.0001 3.0001 0.43)
    cellZone : none

For cellZone none found point (3.0001 3.0001 0.43) in global region 0 out of 20082 regions.
Edge intersection testing:
    Number of edges             : 1284190
    Number of edges to retest   : 334726
    Number of intersected edges : 114716

Remove unreachable sections of mesh
-----------------------------------

Keeping all cells containing points 1((3.0001 3.0001 0.43))
Selected for keeping : 325755 cells.
Edge intersection testing:
    Number of edges             : 1043491
    Number of edges to retest   : 0
    Number of intersected edges : 59785
Split mesh in = 2.18 s


After subsetting : cells:325755  faces:1043491  points:382606
Cells per refinement level:
    0	934
    1	1726
    2	4992
    3	9472
    4	131619
    5	22936
    6	154076

Introducing zones for interfaces
--------------------------------

Setting cellZones according to locationsInMesh:
Location : (3.0001 3.0001 0.43)
    cellZone : none

For cellZone none found point (3.0001 3.0001 0.43) in global region 0 out of 1 regions.
Setting faceZones according to neighbouring cellZones:

Edge intersection testing:
    Number of edges             : 1043491
    Number of edges to retest   : 0
    Number of intersected edges : 59785

Handling cells with snap problems
---------------------------------

Introducing baffles for 59785 faces that are intersected by the surface.

Setting cellZones according to locationsInMesh:
Location : (3.0001 3.0001 0.43)
    cellZone : none

For cellZone none found point (3.0001 3.0001 0.43) in global region 0 out of 1 regions.
Edge intersection testing:
    Number of edges             : 1043491
    Number of edges to retest   : 181281
    Number of intersected edges : 59785
Created baffles in = 1.77 s


After introducing baffles : cells:325755  faces:1043491  points:382606
Cells per refinement level:
    0	934
    1	1726
    2	4992
    3	9472
    4	131619
    5	22936
    6	154076

Introducing baffles to block off problem cells
----------------------------------------------

markFacesOnProblemCells : marked 81 additional internal faces to be converted into baffles.
Analyzed problem cells in = 0.61 s


Introducing baffles to delete problem cells.

Edge intersection testing:
    Number of edges             : 1043572
    Number of edges to retest   : 446
    Number of intersected edges : 59785
Created baffles in = 0.55 s


After introducing baffles : cells:325755  faces:1043572  points:382606
Cells per refinement level:
    0	934
    1	1726
    2	4992
    3	9472
    4	131619
    5	22936
    6	154076
Setting cellZones according to locationsInMesh:
Location : (3.0001 3.0001 0.43)
    cellZone : none

For cellZone none found point (3.0001 3.0001 0.43) in global region 0 out of 41 regions.
Edge intersection testing:
    Number of edges             : 1043572
    Number of edges to retest   : 181356
    Number of intersected edges : 59785

Remove unreachable sections of mesh
-----------------------------------

Keeping all cells containing points 1((3.0001 3.0001 0.43))
Selected for keeping : 325715 cells.
Edge intersection testing:
    Number of edges             : 1043332
    Number of edges to retest   : 0
    Number of intersected edges : 59720
Split mesh in = 1.64 s


After subsetting : cells:325715  faces:1043332  points:382542
Cells per refinement level:
    0	934
    1	1726
    2	4992
    3	9472
    4	131619
    5	22936
    6	154036

Merge free-standing baffles
---------------------------

freeStandingBaffles : detected 432 free-standing baffles out of 7942

freeStandingBaffles : detected 61 planar (within 30 degrees) free-standing baffles out of 432

Detected free-standing baffles : 61
Edge intersection testing:
    Number of edges             : 1043271
    Number of edges to retest   : 61
    Number of intersected edges : 59659

Introducing baffles to block off problem cells
----------------------------------------------

markFacesOnProblemCells : marked 66 additional internal faces to be converted into baffles.
Analyzed problem cells in = 1.29 s


Introducing baffles to delete problem cells.

Edge intersection testing:
    Number of edges             : 1043337
    Number of edges to retest   : 354
    Number of intersected edges : 59659
Created baffles in = 0.53 s


After introducing baffles : cells:325715  faces:1043337  points:382542
Cells per refinement level:
    0	934
    1	1726
    2	4992
    3	9472
    4	131619
    5	22936
    6	154036

Remove unreachable sections of mesh
-----------------------------------

Keeping all cells containing points 1((3.0001 3.0001 0.43))
Selected for keeping : 325682 cells.
Edge intersection testing:
    Number of edges             : 1043139
    Number of edges to retest   : 0
    Number of intersected edges : 59611
Merged free-standing baffles in = 0.65 s


dupNonManifoldPoints : Found : 7844 non-manifold points (out of 382488)
Edge intersection testing:
    Number of edges             : 1043139
    Number of edges to retest   : 0
    Number of intersected edges : 59611
Detected unsplittable baffles : 122
Edge intersection testing:
    Number of edges             : 1043017
    Number of edges to retest   : 122
    Number of intersected edges : 59489
Merged free-standing baffles in = 1.47 s.

Merge refined boundary faces
----------------------------

Merging 44 sets of faces.

Edge intersection testing:
    Number of edges             : 1042949
    Number of edges to retest   : 430
    Number of intersected edges : 59419

Undo iteration 0
----------------
Checking faces in error :
    non-orthogonality > 65  degrees                        : 0
    faces with face pyramid volume < 1e-13                 : 0
    faces with face-decomposition tet quality < 1e-15      : 0
    faces with concavity > 80  degrees                     : 0
    faces with skewness > 4   (internal) or 20  (boundary) : 0
    faces with interpolation weights (0..1)  < 0.02        : 0
    faces with volume ratio of neighbour cells < 0.01      : 0
    faces with face twist < 0.02                           : 0
    faces on cells with determinant < 0.001                : 0

Merging all points on surface that
- are used by only two boundary faces and
- make an angle with a cosine of more than 0.707107.

Removing 47 straight edge points ...

Edge intersection testing:
    Number of edges             : 1042949
    Number of edges to retest   : 427
    Number of intersected edges : 59419

Undo iteration 0
----------------
Checking faces in error :
    non-orthogonality > 65  degrees                        : 0
    faces with face pyramid volume < 1e-13                 : 0
    faces with face-decomposition tet quality < 1e-15      : 0
    faces with concavity > 80  degrees                     : 0
    faces with skewness > 4   (internal) or 20  (boundary) : 0
    faces with interpolation weights (0..1)  < 0.02        : 0
    faces with volume ratio of neighbour cells < 0.01      : 0
    faces with face twist < 0.02                           : 0
    faces on cells with determinant < 0.001                : 0
Refined mesh : cells:325682  faces:1042949  points:390339
Cells per refinement level:
    0	934
    1	1726
    2	4992
    3	9472
    4	131619
    5	22936
    6	154003
Writing mesh to time constant
Wrote mesh in = 0.05 s.
Mesh refined in = 33.87 s.

Morphing phase
--------------

Duplicating 0 points on faceZones of type boundary
Snapping to features in 10 iterations ...
Constructing mesh displacer ...
Using mesh parameters 
{
    maxNonOrtho     65;
    maxBoundarySkewness 20;
    maxInternalSkewness 4;
    maxConcave      80;
    minVol          1e-13;
    minTetQuality   1e-15;
    minArea         -1;
    minTwist        0.02;
    minDeterminant  0.001;
    minFaceWeight   0.02;
    minVolRatio     0.01;
    minTriangleTwist -1;
    minEdgeLength   -1;
    nSmoothScale    4;
    errorReduction  0.75;
}


Checking initial mesh ...
Checking faces in error :
    non-orthogonality > 65  degrees                        : 0
    faces with face pyramid volume < 1e-13                 : 0
    faces with face-decomposition tet quality < 1e-15      : 0
    faces with concavity > 80  degrees                     : 0
    faces with skewness > 4   (internal) or 20  (boundary) : 0
    faces with interpolation weights (0..1)  < 0.02        : 0
    faces with volume ratio of neighbour cells < 0.01      : 0
    faces with face twist < 0.02                           : 0
    faces on cells with determinant < 0.001                : 0
Detected 0 illegal faces (concave, zero area or negative cell pyramid volume)
Checked initial mesh in = 4.02 s


Smoothing patch points ...
Smoothing iteration 0
Found 15754 non-manifold point(s).

Scaling iteration 0
Moving mesh using displacement scaling : min:1 max:1
Checking faces in error :
    non-orthogonality > 65  degrees                        : 0
    faces with face pyramid volume < 1e-13                 : 0
    faces with face-decomposition tet quality < 1e-15      : 1
    faces with concavity > 80  degrees                     : 0
    faces with skewness > 4   (internal) or 20  (boundary) : 0
    faces with interpolation weights (0..1)  < 0.02        : 0
    faces with volume ratio of neighbour cells < 0.01      : 0
    faces with face twist < 0.02                           : 0
    faces on cells with determinant < 0.001                : 0

Scaling iteration 1
Moving mesh using displacement scaling : min:0.75 max:1
Checking faces in error :
    non-orthogonality > 65  degrees                        : 0
    faces with face pyramid volume < 1e-13                 : 0
    faces with face-decomposition tet quality < 1e-15      : 0
    faces with concavity > 80  degrees                     : 0
    faces with skewness > 4   (internal) or 20  (boundary) : 0
    faces with interpolation weights (0..1)  < 0.02        : 0
    faces with volume ratio of neighbour cells < 0.01      : 0
    faces with face twist < 0.02                           : 0
    faces on cells with determinant < 0.001                : 0
Successfully moved mesh

Smoothing iteration 1
Found 0 non-manifold point(s).

Scaling iteration 0
Moving mesh using displacement scaling : min:1 max:1
Checking faces in error :
    non-orthogonality > 65  degrees                        : 0
    faces with face pyramid volume < 1e-13                 : 0
    faces with face-decomposition tet quality < 1e-15      : 0
    faces with concavity > 80  degrees                     : 0
    faces with skewness > 4   (internal) or 20  (boundary) : 0
    faces with interpolation weights (0..1)  < 0.02        : 0
    faces with volume ratio of neighbour cells < 0.01      : 0
    faces with face twist < 0.02                           : 1
    faces on cells with determinant < 0.001                : 0

Scaling iteration 1
Moving mesh using displacement scaling : min:0.75 max:1
Checking faces in error :
    non-orthogonality > 65  degrees                        : 0
    faces with face pyramid volume < 1e-13                 : 0
    faces with face-decomposition tet quality < 1e-15      : 0
    faces with concavity > 80  degrees                     : 0
    faces with skewness > 4   (internal) or 20  (boundary) : 0
    faces with interpolation weights (0..1)  < 0.02        : 0
    faces with volume ratio of neighbour cells < 0.01      : 0
    faces with face twist < 0.02                           : 0
    faces on cells with determinant < 0.001                : 0
Successfully moved mesh

Smoothing iteration 2
Found 0 non-manifold point(s).

Scaling iteration 0
Moving mesh using displacement scaling : min:1 max:1
Checking faces in error :
    non-orthogonality > 65  degrees                        : 0
    faces with face pyramid volume < 1e-13                 : 0
    faces with face-decomposition tet quality < 1e-15      : 0
    faces with concavity > 80  degrees                     : 0
    faces with skewness > 4   (internal) or 20  (boundary) : 0
    faces with interpolation weights (0..1)  < 0.02        : 0
    faces with volume ratio of neighbour cells < 0.01      : 0
    faces with face twist < 0.02                           : 0
    faces on cells with determinant < 0.001                : 0
Successfully moved mesh

Patch points smoothed in = 3.62 s



Morph iteration 0
-----------------
Calculating patchDisplacement as distance to nearest surface point ...
    non-zone points : attract to nearest of all non-zone surfaces
    zone points     : attract to zone surface only

Wanted displacement : average:0.00361337 min:5.68792e-09 max:0.0206519
Calculated surface displacement in = 0.17 s


Detecting near surfaces ...
Overriding nearest with intersection of close gaps at 206 out of 61719 points.
Overriding displacement on features :
   implicit features    : false
   explicit features    : true
   multi-patch features : false

Detected 1034 baffle edges out of 123590 edges.
Baffle points     : 1214 of which attracted to :
    feature point : 0
    feature edge  : 1214
    rest          : 0

Initially selected 21010 mesh points out of 61719 for reverse attraction.
Selected 41254 mesh points out of 61719 for reverse attraction.
Stringing feature edges : changed 1851 points
Stringing feature edges : changed 165 points
Stringing feature edges : changed 34 points
Stringing feature edges : changed 18 points
Stringing feature edges : changed 9 points
Stringing feature edges : changed 8 points
Stringing feature edges : changed 3 points
Stringing feature edges : changed 2 points
Stringing feature edges : changed 1 points
Stringing feature edges : changed 1 points
Stringing feature edges : changed 1 points
Stringing feature edges : changed 3 points
Stringing feature edges : changed 1 points
Stringing feature edges : changed 1 points
Stringing feature edges : changed 0 points
Attraction:
    linear   : max:(-0.020376 0.0033563 0.000233362) avg:(-1.19569e-05 -3.39724e-05 6.5692e-06)
    feature  : max:(0.060327 -0.00692138 -0.00691761) avg:(2.18079e-05 5.78261e-06 -1.65565e-05)
Feature analysis : total master points :61719 of which attracted to :
    feature point   : 1134
    feature edge    : 10430
    nearest surface : 0
    rest            : 50155

--> FOAM Warning : Displacement (0.000124189 0.000347094 0.000229902) at mesh point 30089 coord (0.994183 0.145191 0.244845) points through the surrounding patch faces
Smoothing displacement ...
Iteration 0
Iteration 10
Iteration 20
Displacement smoothed in = 1.66 s


Moving mesh ...

Iteration 0
Moving mesh using displacement scaling : min:1 max:1
Checking faces in error :
    non-orthogonality > 65  degrees                        : 0
    faces with face pyramid volume < 1e-13                 : 0
    faces with face-decomposition tet quality < 1e-15      : 0
    faces with concavity > 80  degrees                     : 0
    faces with skewness > 4   (internal) or 20  (boundary) : 0
    faces with interpolation weights (0..1)  < 0.02        : 0
    faces with volume ratio of neighbour cells < 0.01      : 0
    faces with face twist < 0.02                           : 0
    faces on cells with determinant < 0.001                : 0
Successfully moved mesh
Moved mesh in = 0.91 s



Morph iteration 1
-----------------
Calculating patchDisplacement as distance to nearest surface point ...
    non-zone points : attract to nearest of all non-zone surfaces
    zone points     : attract to zone surface only

Wanted displacement : average:0.00337566 min:5.13337e-08 max:0.0204473
Calculated surface displacement in = 0.17 s


Detecting near surfaces ...
Overriding nearest with intersection of close gaps at 204 out of 61719 points.
Overriding displacement on features :
   implicit features    : false
   explicit features    : true
   multi-patch features : false

Detected 1050 baffle edges out of 123590 edges.
Baffle points     : 1218 of which attracted to :
    feature point : 0
    feature edge  : 1218
    rest          : 0

Initially selected 21096 mesh points out of 61719 for reverse attraction.
Selected 41275 mesh points out of 61719 for reverse attraction.
Stringing feature edges : changed 1837 points
Stringing feature edges : changed 149 points
Stringing feature edges : changed 51 points
Stringing feature edges : changed 17 points
Stringing feature edges : changed 10 points
Stringing feature edges : changed 6 points
Stringing feature edges : changed 2 points
Stringing feature edges : changed 3 points
Stringing feature edges : changed 1 points
Stringing feature edges : changed 4 points
Stringing feature edges : changed 2 points
Stringing feature edges : changed 0 points
Attraction:
    linear   : max:(-0.0201742 0.00332306 0.000231051) avg:(-1.4989e-05 -3.19321e-05 6.13822e-06)
    feature  : max:(0.0573933 0.00267864 -0.0177081) avg:(1.61729e-05 8.59979e-06 -1.04506e-05)
Feature analysis : total master points :61719 of which attracted to :
    feature point   : 1131
    feature edge    : 10488
    nearest surface : 0
    rest            : 50100

--> FOAM Warning : Displacement (5.43624e-05 7.27721e-05 -0.000361837) at mesh point 36968 coord (0.500865 0.077328 0.189684) points through the surrounding patch faces
Smoothing displacement ...
Iteration 0
Iteration 10
Iteration 20
Displacement smoothed in = 1.67 s


Moving mesh ...

Iteration 0
Moving mesh using displacement scaling : min:1 max:1
Checking faces in error :
    non-orthogonality > 65  degrees                        : 0
    faces with face pyramid volume < 1e-13                 : 0
    faces with face-decomposition tet quality < 1e-15      : 0
    faces with concavity > 80  degrees                     : 0
    faces with skewness > 4   (internal) or 20  (boundary) : 0
    faces with interpolation weights (0..1)  < 0.02        : 0
    faces with volume ratio of neighbour cells < 0.01      : 0
    faces with face twist < 0.02                           : 0
    faces on cells with determinant < 0.001                : 0
Successfully moved mesh
Moved mesh in = 0.92 s



Morph iteration 2
-----------------
Calculating patchDisplacement as distance to nearest surface point ...
    non-zone points : attract to nearest of all non-zone surfaces
    zone points     : attract to zone surface only

Wanted displacement : average:0.00292787 min:7.87476e-08 max:0.0201317
Calculated surface displacement in = 0.16 s


Detecting near surfaces ...
Overriding nearest with intersection of close gaps at 225 out of 61719 points.
Overriding displacement on features :
   implicit features    : false
   explicit features    : true
   multi-patch features : false

Detected 1106 baffle edges out of 123590 edges.
Baffle points     : 1242 of which attracted to :
    feature point : 0
    feature edge  : 1242
    rest          : 0

Initially selected 21263 mesh points out of 61719 for reverse attraction.
Selected 41315 mesh points out of 61719 for reverse attraction.
Stringing feature edges : changed 1779 points
Stringing feature edges : changed 157 points
Stringing feature edges : changed 42 points
Stringing feature edges : changed 15 points
Stringing feature edges : changed 6 points
Stringing feature edges : changed 3 points
Stringing feature edges : changed 1 points
Stringing feature edges : changed 0 points
Attraction:
    linear   : max:(-0.0179465 0.00911555 0.000338047) avg:(-1.86758e-05 -2.33565e-05 5.42604e-06)
    feature  : max:(0.0564593 -0.00583729 -0.000733209) avg:(1.742e-05 6.58839e-06 -1.34507e-05)
Feature analysis : total master points :61719 of which attracted to :
    feature point   : 1157
    feature edge    : 10498
    nearest surface : 0
    rest            : 50064

--> FOAM Warning : Displacement (0.00017187 0.000443951 -0.000107235) at mesh point 62051 coord (0.984732 0.146912 0.24861) points through the surrounding patch faces
Smoothing displacement ...
Iteration 0
Iteration 10
Iteration 20
Displacement smoothed in = 1.66 s


Moving mesh ...

Iteration 0
Moving mesh using displacement scaling : min:1 max:1
Checking faces in error :
    non-orthogonality > 65  degrees                        : 0
    faces with face pyramid volume < 1e-13                 : 0
    faces with face-decomposition tet quality < 1e-15      : 0
    faces with concavity > 80  degrees                     : 0
    faces with skewness > 4   (internal) or 20  (boundary) : 0
    faces with interpolation weights (0..1)  < 0.02        : 0
    faces with volume ratio of neighbour cells < 0.01      : 0
    faces with face twist < 0.02                           : 0
    faces on cells with determinant < 0.001                : 0
Successfully moved mesh
Moved mesh in = 0.89 s



Morph iteration 3
-----------------
Calculating patchDisplacement as distance to nearest surface point ...
    non-zone points : attract to nearest of all non-zone surfaces
    zone points     : attract to zone surface only

Wanted displacement : average:0.0023535 min:1.0708e-08 max:0.0194133
Calculated surface displacement in = 0.14 s


Detecting near surfaces ...
Overriding nearest with intersection of close gaps at 273 out of 61719 points.
Overriding displacement on features :
   implicit features    : false
   explicit features    : true
   multi-patch features : false

Detected 1169 baffle edges out of 123590 edges.
Baffle points     : 1282 of which attracted to :
    feature point : 0
    feature edge  : 1282
    rest          : 0

Initially selected 21339 mesh points out of 61719 for reverse attraction.
Selected 41323 mesh points out of 61719 for reverse attraction.
Stringing feature edges : changed 1755 points
Stringing feature edges : changed 156 points
Stringing feature edges : changed 35 points
Stringing feature edges : changed 11 points
Stringing feature edges : changed 1 points
Stringing feature edges : changed 1 points
Stringing feature edges : changed 1 points
Stringing feature edges : changed 1 points
Stringing feature edges : changed 0 points
Attraction:
    linear   : max:(-0.0173061 0.00879029 0.000325984) avg:(-2.26403e-05 -1.50685e-05 3.17504e-06)
    feature  : max:(0.0512633 -0.00431147 0.000741749) avg:(1.52136e-05 2.91047e-06 -1.69773e-05)
Feature analysis : total master points :61719 of which attracted to :
    feature point   : 1176
    feature edge    : 10544
    nearest surface : 0
    rest            : 49999

--> FOAM Warning : Displacement (0.000550373 0.00164933 -0.000689829) at mesh point 62051 coord (0.984903 0.147356 0.248503) points through the surrounding patch faces
Smoothing displacement ...
Iteration 0
Iteration 10
Iteration 20
Displacement smoothed in = 1.64 s


Moving mesh ...

Iteration 0
Moving mesh using displacement scaling : min:1 max:1
Checking faces in error :
    non-orthogonality > 65  degrees                        : 0
    faces with face pyramid volume < 1e-13                 : 0
    faces with face-decomposition tet quality < 1e-15      : 7
    faces with concavity > 80  degrees                     : 0
    faces with skewness > 4   (internal) or 20  (boundary) : 0
    faces with interpolation weights (0..1)  < 0.02        : 0
    faces with volume ratio of neighbour cells < 0.01      : 0
    faces with face twist < 0.02                           : 3
    faces on cells with determinant < 0.001                : 0

Iteration 1
Moving mesh using displacement scaling : min:0.75 max:1
Checking faces in error :
    non-orthogonality > 65  degrees                        : 0
    faces with face pyramid volume < 1e-13                 : 0
    faces with face-decomposition tet quality < 1e-15      : 4
    faces with concavity > 80  degrees                     : 0
    faces with skewness > 4   (internal) or 20  (boundary) : 0
    faces with interpolation weights (0..1)  < 0.02        : 0
    faces with volume ratio of neighbour cells < 0.01      : 0
    faces with face twist < 0.02                           : 1
    faces on cells with determinant < 0.001                : 0

Iteration 2
Moving mesh using displacement scaling : min:0.5625 max:1
Checking faces in error :
    non-orthogonality > 65  degrees                        : 0
    faces with face pyramid volume < 1e-13                 : 0
    faces with face-decomposition tet quality < 1e-15      : 2
    faces with concavity > 80  degrees                     : 0
    faces with skewness > 4   (internal) or 20  (boundary) : 0
    faces with interpolation weights (0..1)  < 0.02        : 0
    faces with volume ratio of neighbour cells < 0.01      : 0
    faces with face twist < 0.02                           : 0
    faces on cells with determinant < 0.001                : 0

Iteration 3
Moving mesh using displacement scaling : min:0.421875 max:1
Checking faces in error :
    non-orthogonality > 65  degrees                        : 0
    faces with face pyramid volume < 1e-13                 : 0
    faces with face-decomposition tet quality < 1e-15      : 1
    faces with concavity > 80  degrees                     : 0
    faces with skewness > 4   (internal) or 20  (boundary) : 0
    faces with interpolation weights (0..1)  < 0.02        : 0
    faces with volume ratio of neighbour cells < 0.01      : 0
    faces with face twist < 0.02                           : 1
    faces on cells with determinant < 0.001                : 0

Iteration 4
Moving mesh using displacement scaling : min:0.316406 max:1
Checking faces in error :
    non-orthogonality > 65  degrees                        : 0
    faces with face pyramid volume < 1e-13                 : 0
    faces with face-decomposition tet quality < 1e-15      : 0
    faces with concavity > 80  degrees                     : 0
    faces with skewness > 4   (internal) or 20  (boundary) : 0
    faces with interpolation weights (0..1)  < 0.02        : 0
    faces with volume ratio of neighbour cells < 0.01      : 0
    faces with face twist < 0.02                           : 1
    faces on cells with determinant < 0.001                : 0

Iteration 5
Displacement scaling for error reduction set to 0.
Moving mesh using displacement scaling : min:0.237305 max:1
Checking faces in error :
    non-orthogonality > 65  degrees                        : 0
    faces with face pyramid volume < 1e-13                 : 0
    faces with face-decomposition tet quality < 1e-15      : 0
    faces with concavity > 80  degrees                     : 0
    faces with skewness > 4   (internal) or 20  (boundary) : 0
    faces with interpolation weights (0..1)  < 0.02        : 0
    faces with volume ratio of neighbour cells < 0.01      : 0
    faces with face twist < 0.02                           : 0
    faces on cells with determinant < 0.001                : 0
Successfully moved mesh
Moved mesh in = 2.48 s



Morph iteration 4
-----------------
Calculating patchDisplacement as distance to nearest surface point ...
    non-zone points : attract to nearest of all non-zone surfaces
    zone points     : attract to zone surface only

Wanted displacement : average:0.00175247 min:1.56286e-10 max:0.0181533
Calculated surface displacement in = 0.13 s


Detecting near surfaces ...
Overriding nearest with intersection of close gaps at 395 out of 61719 points.
Overriding displacement on features :
   implicit features    : false
   explicit features    : true
   multi-patch features : false

Detected 1197 baffle edges out of 123590 edges.
Baffle points     : 1310 of which attracted to :
    feature point : 0
    feature edge  : 1310
    rest          : 0

Initially selected 21540 mesh points out of 61719 for reverse attraction.
Selected 41332 mesh points out of 61719 for reverse attraction.
Stringing feature edges : changed 1683 points
Stringing feature edges : changed 124 points
Stringing feature edges : changed 39 points
Stringing feature edges : changed 10 points
Stringing feature edges : changed 3 points
Stringing feature edges : changed 2 points
Stringing feature edges : changed 2 points
Stringing feature edges : changed 1 points
Stringing feature edges : changed 0 points
Attraction:
    linear   : max:(-2.30864e-05 -0.0181519 -0.000224834) avg:(-2.39004e-05 -6.13589e-06 -7.69188e-07)
    feature  : max:(0.0114743 0.00321566 -0.0501799) avg:(1.69678e-05 3.92298e-06 -8.99068e-06)
Feature analysis : total master points :61719 of which attracted to :
    feature point   : 1162
    feature edge    : 10648
    nearest surface : 0
    rest            : 49909

--> FOAM Warning : Displacement (0.000236151 0.00107458 0.000183395) at mesh point 30089 coord (0.995146 0.146623 0.245979) points through the surrounding patch faces
Smoothing displacement ...
Iteration 0
Iteration 10
Iteration 20
Displacement smoothed in = 1.61 s


Moving mesh ...

Iteration 0
Moving mesh using displacement scaling : min:1 max:1
Checking faces in error :
    non-orthogonality > 65  degrees                        : 1
    faces with face pyramid volume < 1e-13                 : 6
    faces with face-decomposition tet quality < 1e-15      : 71
    faces with concavity > 80  degrees                     : 0
    faces with skewness > 4   (internal) or 20  (boundary) : 0
    faces with interpolation weights (0..1)  < 0.02        : 0
    faces with volume ratio of neighbour cells < 0.01      : 0
    faces with face twist < 0.02                           : 17
    faces on cells with determinant < 0.001                : 0

Iteration 1
Moving mesh using displacement scaling : min:0.75 max:1
Checking faces in error :
    non-orthogonality > 65  degrees                        : 1
    faces with face pyramid volume < 1e-13                 : 1
    faces with face-decomposition tet quality < 1e-15      : 47
    faces with concavity > 80  degrees                     : 0
    faces with skewness > 4   (internal) or 20  (boundary) : 0
    faces with interpolation weights (0..1)  < 0.02        : 0
    faces with volume ratio of neighbour cells < 0.01      : 0
    faces with face twist < 0.02                           : 17
    faces on cells with determinant < 0.001                : 0

Iteration 2
Moving mesh using displacement scaling : min:0.5625 max:1
Checking faces in error :
    non-orthogonality > 65  degrees                        : 1
    faces with face pyramid volume < 1e-13                 : 0
    faces with face-decomposition tet quality < 1e-15      : 33
    faces with concavity > 80  degrees                     : 0
    faces with skewness > 4   (internal) or 20  (boundary) : 0
    faces with interpolation weights (0..1)  < 0.02        : 0
    faces with volume ratio of neighbour cells < 0.01      : 0
    faces with face twist < 0.02                           : 9
    faces on cells with determinant < 0.001                : 0

Iteration 3
Moving mesh using displacement scaling : min:0.421875 max:1
Checking faces in error :
    non-orthogonality > 65  degrees                        : 1
    faces with face pyramid volume < 1e-13                 : 0
    faces with face-decomposition tet quality < 1e-15      : 19
    faces with concavity > 80  degrees                     : 0
    faces with skewness > 4   (internal) or 20  (boundary) : 0
    faces with interpolation weights (0..1)  < 0.02        : 0
    faces with volume ratio of neighbour cells < 0.01      : 0
    faces with face twist < 0.02                           : 11
    faces on cells with determinant < 0.001                : 0

Iteration 4
Moving mesh using displacement scaling : min:0.316406 max:1
Checking faces in error :
    non-orthogonality > 65  degrees                        : 1
    faces with face pyramid volume < 1e-13                 : 0
    faces with face-decomposition tet quality < 1e-15      : 13
    faces with concavity > 80  degrees                     : 0
    faces with skewness > 4   (internal) or 20  (boundary) : 0
    faces with interpolation weights (0..1)  < 0.02        : 0
    faces with volume ratio of neighbour cells < 0.01      : 0
    faces with face twist < 0.02                           : 9
    faces on cells with determinant < 0.001                : 0

Iteration 5
Displacement scaling for error reduction set to 0.
Moving mesh using displacement scaling : min:0.237305 max:1
Checking faces in error :
    non-orthogonality > 65  degrees                        : 0
    faces with face pyramid volume < 1e-13                 : 0
    faces with face-decomposition tet quality < 1e-15      : 11
    faces with concavity > 80  degrees                     : 0
    faces with skewness > 4   (internal) or 20  (boundary) : 0
    faces with interpolation weights (0..1)  < 0.02        : 0
    faces with volume ratio of neighbour cells < 0.01      : 0
    faces with face twist < 0.02                           : 4
    faces on cells with determinant < 0.001                : 0

Iteration 6
Moving mesh using displacement scaling : min:0 max:1
Checking faces in error :
    non-orthogonality > 65  degrees                        : 0
    faces with face pyramid volume < 1e-13                 : 0
    faces with face-decomposition tet quality < 1e-15      : 0
    faces with concavity > 80  degrees                     : 0
    faces with skewness > 4   (internal) or 20  (boundary) : 0
    faces with interpolation weights (0..1)  < 0.02        : 0
    faces with volume ratio of neighbour cells < 0.01      : 0
    faces with face twist < 0.02                           : 0
    faces on cells with determinant < 0.001                : 0
Successfully moved mesh
Moved mesh in = 3.13 s



Morph iteration 5
-----------------
Calculating patchDisplacement as distance to nearest surface point ...
    non-zone points : attract to nearest of all non-zone surfaces
    zone points     : attract to zone surface only

Wanted displacement : average:0.00121038 min:1.55275e-08 max:0.0180455
Calculated surface displacement in = 0.11 s


Detecting near surfaces ...
Overriding nearest with intersection of close gaps at 574 out of 61719 points.
Overriding displacement on features :
   implicit features    : false
   explicit features    : true
   multi-patch features : false

Detected 1259 baffle edges out of 123590 edges.
Baffle points     : 1389 of which attracted to :
    feature point : 0
    feature edge  : 1388
    rest          : 1

Initially selected 21800 mesh points out of 61719 for reverse attraction.
Selected 41343 mesh points out of 61719 for reverse attraction.
Stringing feature edges : changed 1623 points
Stringing feature edges : changed 124 points
Stringing feature edges : changed 38 points
Stringing feature edges : changed 16 points
Stringing feature edges : changed 7 points
Stringing feature edges : changed 2 points
Stringing feature edges : changed 1 points
Stringing feature edges : changed 1 points
Stringing feature edges : changed 1 points
Stringing feature edges : changed 4 points
Stringing feature edges : changed 0 points
Attraction:
    linear   : max:(-2.29493e-05 -0.0180441 -0.000223499) avg:(-2.17387e-05 2.30489e-07 -4.35096e-06)
    feature  : max:(0.00898008 0.0030651 -0.0373952) avg:(9.50621e-06 1.12436e-05 -5.03501e-06)
Feature analysis : total master points :61719 of which attracted to :
    feature point   : 1171
    feature edge    : 10837
    nearest surface : 0
    rest            : 49711

--> FOAM Warning : Displacement (0.00100961 0.00132255 0.000116661) at mesh point 62051 coord (0.985416 0.150005 0.247428) points through the surrounding patch faces
Smoothing displacement ...
Iteration 0
Iteration 10
Iteration 20
Displacement smoothed in = 1.65 s


Moving mesh ...

Iteration 0
Moving mesh using displacement scaling : min:1 max:1
Checking faces in error :
    non-orthogonality > 65  degrees                        : 2
    faces with face pyramid volume < 1e-13                 : 32
    faces with face-decomposition tet quality < 1e-15      : 268
    faces with concavity > 80  degrees                     : 2
    faces with skewness > 4   (internal) or 20  (boundary) : 0
    faces with interpolation weights (0..1)  < 0.02        : 0
    faces with volume ratio of neighbour cells < 0.01      : 0
    faces with face twist < 0.02                           : 30
    faces on cells with determinant < 0.001                : 0

Iteration 1
Moving mesh using displacement scaling : min:0.75 max:1
Checking faces in error :
    non-orthogonality > 65  degrees                        : 2
    faces with face pyramid volume < 1e-13                 : 19
    faces with face-decomposition tet quality < 1e-15      : 189
    faces with concavity > 80  degrees                     : 2
    faces with skewness > 4   (internal) or 20  (boundary) : 0
    faces with interpolation weights (0..1)  < 0.02        : 0
    faces with volume ratio of neighbour cells < 0.01      : 0
    faces with face twist < 0.02                           : 18
    faces on cells with determinant < 0.001                : 0

Iteration 2
Moving mesh using displacement scaling : min:0.5625 max:1
Checking faces in error :
    non-orthogonality > 65  degrees                        : 1
    faces with face pyramid volume < 1e-13                 : 13
    faces with face-decomposition tet quality < 1e-15      : 152
    faces with concavity > 80  degrees                     : 0
    faces with skewness > 4   (internal) or 20  (boundary) : 0
    faces with interpolation weights (0..1)  < 0.02        : 0
    faces with volume ratio of neighbour cells < 0.01      : 0
    faces with face twist < 0.02                           : 24
    faces on cells with determinant < 0.001                : 0

Iteration 3
Moving mesh using displacement scaling : min:0.421875 max:1
Checking faces in error :
    non-orthogonality > 65  degrees                        : 1
    faces with face pyramid volume < 1e-13                 : 8
    faces with face-decomposition tet quality < 1e-15      : 112
    faces with concavity > 80  degrees                     : 0
    faces with skewness > 4   (internal) or 20  (boundary) : 0
    faces with interpolation weights (0..1)  < 0.02        : 0
    faces with volume ratio of neighbour cells < 0.01      : 0
    faces with face twist < 0.02                           : 25
    faces on cells with determinant < 0.001                : 0

Iteration 4
Moving mesh using displacement scaling : min:0.316406 max:1
Checking faces in error :
    non-orthogonality > 65  degrees                        : 1
    faces with face pyramid volume < 1e-13                 : 6
    faces with face-decomposition tet quality < 1e-15      : 92
    faces with concavity > 80  degrees                     : 0
    faces with skewness > 4   (internal) or 20  (boundary) : 0
    faces with interpolation weights (0..1)  < 0.02        : 0
    faces with volume ratio of neighbour cells < 0.01      : 0
    faces with face twist < 0.02                           : 26
    faces on cells with determinant < 0.001                : 0

Iteration 5
Displacement scaling for error reduction set to 0.
Moving mesh using displacement scaling : min:0.237305 max:1
Checking faces in error :
    non-orthogonality > 65  degrees                        : 0
    faces with face pyramid volume < 1e-13                 : 2
    faces with face-decomposition tet quality < 1e-15      : 74
    faces with concavity > 80  degrees                     : 0
    faces with skewness > 4   (internal) or 20  (boundary) : 0
    faces with interpolation weights (0..1)  < 0.02        : 0
    faces with volume ratio of neighbour cells < 0.01      : 0
    faces with face twist < 0.02                           : 24
    faces on cells with determinant < 0.001                : 0

Iteration 6
Moving mesh using displacement scaling : min:0 max:1
Checking faces in error :
    non-orthogonality > 65  degrees                        : 0
    faces with face pyramid volume < 1e-13                 : 0
    faces with face-decomposition tet quality < 1e-15      : 0
    faces with concavity > 80  degrees                     : 0
    faces with skewness > 4   (internal) or 20  (boundary) : 0
    faces with interpolation weights (0..1)  < 0.02        : 0
    faces with volume ratio of neighbour cells < 0.01      : 0
    faces with face twist < 0.02                           : 0
    faces on cells with determinant < 0.001                : 0
Successfully moved mesh
Moved mesh in = 4.12 s



Morph iteration 6
-----------------
Calculating patchDisplacement as distance to nearest surface point ...
    non-zone points : attract to nearest of all non-zone surfaces
    zone points     : attract to zone surface only

Wanted displacement : average:0.000787212 min:4.85361e-09 max:0.0179827
Calculated surface displacement in = 0.1 s


Detecting near surfaces ...
Overriding nearest with intersection of close gaps at 957 out of 61719 points.
Overriding displacement on features :
   implicit features    : false
   explicit features    : true
   multi-patch features : false

Detected 1351 baffle edges out of 123590 edges.
Baffle points     : 1517 of which attracted to :
    feature point : 0
    feature edge  : 1514
    rest          : 3

Initially selected 21884 mesh points out of 61719 for reverse attraction.
Selected 41415 mesh points out of 61719 for reverse attraction.
Stringing feature edges : changed 1557 points
Stringing feature edges : changed 143 points
Stringing feature edges : changed 35 points
Stringing feature edges : changed 17 points
Stringing feature edges : changed 4 points
Stringing feature edges : changed 0 points
Attraction:
    linear   : max:(-2.26351e-05 -0.0179813 -0.000223972) avg:(-1.93691e-05 4.02215e-06 -7.87187e-06)
    feature  : max:(-0.0165976 0.0134149 0.0480184) avg:(2.89677e-06 9.41155e-06 -5.01924e-06)
Feature analysis : total master points :61719 of which attracted to :
    feature point   : 1217
    feature edge    : 10934
    nearest surface : 0
    rest            : 49568

--> FOAM Warning : Displacement (0.00113844 0.00103554 0.000555465) at mesh point 62051 coord (0.986425 0.151328 0.247545) points through the surrounding patch faces
Smoothing displacement ...
Iteration 0
Iteration 10
Iteration 20
Displacement smoothed in = 1.69 s


Moving mesh ...

Iteration 0
Moving mesh using displacement scaling : min:1 max:1
Checking faces in error :
    non-orthogonality > 65  degrees                        : 12
    faces with face pyramid volume < 1e-13                 : 77
    faces with face-decomposition tet quality < 1e-15      : 601
    faces with concavity > 80  degrees                     : 11
    faces with skewness > 4   (internal) or 20  (boundary) : 0
    faces with interpolation weights (0..1)  < 0.02        : 0
    faces with volume ratio of neighbour cells < 0.01      : 0
    faces with face twist < 0.02                           : 44
    faces on cells with determinant < 0.001                : 0

Iteration 1
Moving mesh using displacement scaling : min:0.75 max:1
Checking faces in error :
    non-orthogonality > 65  degrees                        : 3
    faces with face pyramid volume < 1e-13                 : 58
    faces with face-decomposition tet quality < 1e-15      : 481
    faces with concavity > 80  degrees                     : 5
    faces with skewness > 4   (internal) or 20  (boundary) : 0
    faces with interpolation weights (0..1)  < 0.02        : 0
    faces with volume ratio of neighbour cells < 0.01      : 0
    faces with face twist < 0.02                           : 33
    faces on cells with determinant < 0.001                : 0

Iteration 2
Moving mesh using displacement scaling : min:0.5625 max:1
Checking faces in error :
    non-orthogonality > 65  degrees                        : 2
    faces with face pyramid volume < 1e-13                 : 32
    faces with face-decomposition tet quality < 1e-15      : 398
    faces with concavity > 80  degrees                     : 3
    faces with skewness > 4   (internal) or 20  (boundary) : 0
    faces with interpolation weights (0..1)  < 0.02        : 0
    faces with volume ratio of neighbour cells < 0.01      : 0
    faces with face twist < 0.02                           : 39
    faces on cells with determinant < 0.001                : 0

Iteration 3
Moving mesh using displacement scaling : min:0.421875 max:1
Checking faces in error :
    non-orthogonality > 65  degrees                        : 1
    faces with face pyramid volume < 1e-13                 : 21
    faces with face-decomposition tet quality < 1e-15      : 328
    faces with concavity > 80  degrees                     : 3
    faces with skewness > 4   (internal) or 20  (boundary) : 0
    faces with interpolation weights (0..1)  < 0.02        : 0
    faces with volume ratio of neighbour cells < 0.01      : 0
    faces with face twist < 0.02                           : 46
    faces on cells with determinant < 0.001                : 0

Iteration 4
Moving mesh using displacement scaling : min:0.316406 max:1
Checking faces in error :
    non-orthogonality > 65  degrees                        : 1
    faces with face pyramid volume < 1e-13                 : 16
    faces with face-decomposition tet quality < 1e-15      : 258
    faces with concavity > 80  degrees                     : 4
    faces with skewness > 4   (internal) or 20  (boundary) : 0
    faces with interpolation weights (0..1)  < 0.02        : 0
    faces with volume ratio of neighbour cells < 0.01      : 0
    faces with face twist < 0.02                           : 57
    faces on cells with determinant < 0.001                : 0

Iteration 5
Displacement scaling for error reduction set to 0.
Moving mesh using displacement scaling : min:0.237305 max:1
Checking faces in error :
    non-orthogonality > 65  degrees                        : 0
    faces with face pyramid volume < 1e-13                 : 8
    faces with face-decomposition tet quality < 1e-15      : 218
    faces with concavity > 80  degrees                     : 2
    faces with skewness > 4   (internal) or 20  (boundary) : 0
    faces with interpolation weights (0..1)  < 0.02        : 0
    faces with volume ratio of neighbour cells < 0.01      : 0
    faces with face twist < 0.02                           : 43
    faces on cells with determinant < 0.001                : 0

Iteration 6
Moving mesh using displacement scaling : min:0 max:1
Checking faces in error :
    non-orthogonality > 65  degrees                        : 0
    faces with face pyramid volume < 1e-13                 : 0
    faces with face-decomposition tet quality < 1e-15      : 0
    faces with concavity > 80  degrees                     : 0
    faces with skewness > 4   (internal) or 20  (boundary) : 0
    faces with interpolation weights (0..1)  < 0.02        : 0
    faces with volume ratio of neighbour cells < 0.01      : 0
    faces with face twist < 0.02                           : 0
    faces on cells with determinant < 0.001                : 0
Successfully moved mesh
Moved mesh in = 5.19 s



Morph iteration 7
-----------------
Calculating patchDisplacement as distance to nearest surface point ...
    non-zone points : attract to nearest of all non-zone surfaces
    zone points     : attract to zone surface only

Wanted displacement : average:0.000501085 min:3.99839e-09 max:0.0179228
Calculated surface displacement in = 0.1 s


Detecting near surfaces ...
Overriding nearest with intersection of close gaps at 1461 out of 61719 points.
Overriding displacement on features :
   implicit features    : false
   explicit features    : true
   multi-patch features : false

Detected 1474 baffle edges out of 123590 edges.
Baffle points     : 1675 of which attracted to :
    feature point : 0
    feature edge  : 1675
    rest          : 0

Initially selected 22030 mesh points out of 61719 for reverse attraction.
Selected 41502 mesh points out of 61719 for reverse attraction.
Stringing feature edges : changed 1500 points
Stringing feature edges : changed 130 points
Stringing feature edges : changed 34 points
Stringing feature edges : changed 14 points
Stringing feature edges : changed 8 points
Stringing feature edges : changed 5 points
Stringing feature edges : changed 1 points
Stringing feature edges : changed 3 points
Stringing feature edges : changed 1 points
Stringing feature edges : changed 2 points
Stringing feature edges : changed 1 points
Stringing feature edges : changed 2 points
Stringing feature edges : changed 1 points
Stringing feature edges : changed 1 points
Stringing feature edges : changed 1 points
Stringing feature edges : changed 0 points
Attraction:
    linear   : max:(0.0202113 -0.00894186 0.00460644) avg:(-1.53804e-05 4.27041e-06 -9.72837e-06)
    feature  : max:(0.0117073 -0.0159887 0.0181797) avg:(-4.2664e-07 7.8097e-06 -4.94428e-06)
Feature analysis : total master points :61719 of which attracted to :
    feature point   : 1201
    feature edge    : 11088
    nearest surface : 0
    rest            : 49430

--> FOAM Warning : Displacement (-0.000442571 -0.00262865 -0.000768203) at mesh point 59313 coord (0.249617 -0.267239 0.761438) points through the surrounding patch faces
Smoothing displacement ...
Iteration 0
Iteration 10
Iteration 20
Displacement smoothed in = 1.67 s


Moving mesh ...

Iteration 0
Moving mesh using displacement scaling : min:1 max:1
Checking faces in error :
    non-orthogonality > 65  degrees                        : 35
    faces with face pyramid volume < 1e-13                 : 154
    faces with face-decomposition tet quality < 1e-15      : 1034
    faces with concavity > 80  degrees                     : 21
    faces with skewness > 4   (internal) or 20  (boundary) : 0
    faces with interpolation weights (0..1)  < 0.02        : 0
    faces with volume ratio of neighbour cells < 0.01      : 0
    faces with face twist < 0.02                           : 54
    faces on cells with determinant < 0.001                : 0

Iteration 1
Moving mesh using displacement scaling : min:0.75 max:1
Checking faces in error :
    non-orthogonality > 65  degrees                        : 14
    faces with face pyramid volume < 1e-13                 : 108
    faces with face-decomposition tet quality < 1e-15      : 821
    faces with concavity > 80  degrees                     : 16
    faces with skewness > 4   (internal) or 20  (boundary) : 0
    faces with interpolation weights (0..1)  < 0.02        : 0
    faces with volume ratio of neighbour cells < 0.01      : 0
    faces with face twist < 0.02                           : 48
    faces on cells with determinant < 0.001                : 0

Iteration 2
Moving mesh using displacement scaling : min:0.5625 max:1
Checking faces in error :
    non-orthogonality > 65  degrees                        : 4
    faces with face pyramid volume < 1e-13                 : 69
    faces with face-decomposition tet quality < 1e-15      : 695
    faces with concavity > 80  degrees                     : 16
    faces with skewness > 4   (internal) or 20  (boundary) : 0
    faces with interpolation weights (0..1)  < 0.02        : 0
    faces with volume ratio of neighbour cells < 0.01      : 0
    faces with face twist < 0.02                           : 63
    faces on cells with determinant < 0.001                : 0

Iteration 3
Moving mesh using displacement scaling : min:0.421875 max:1
Checking faces in error :
    non-orthogonality > 65  degrees                        : 3
    faces with face pyramid volume < 1e-13                 : 44
    faces with face-decomposition tet quality < 1e-15      : 595
    faces with concavity > 80  degrees                     : 12
    faces with skewness > 4   (internal) or 20  (boundary) : 0
    faces with interpolation weights (0..1)  < 0.02        : 0
    faces with volume ratio of neighbour cells < 0.01      : 0
    faces with face twist < 0.02                           : 57
    faces on cells with determinant < 0.001                : 0

Iteration 4
Moving mesh using displacement scaling : min:0.316406 max:1
Checking faces in error :
    non-orthogonality > 65  degrees                        : 3
    faces with face pyramid volume < 1e-13                 : 31
    faces with face-decomposition tet quality < 1e-15      : 492
    faces with concavity > 80  degrees                     : 11
    faces with skewness > 4   (internal) or 20  (boundary) : 0
    faces with interpolation weights (0..1)  < 0.02        : 0
    faces with volume ratio of neighbour cells < 0.01      : 0
    faces with face twist < 0.02                           : 72
    faces on cells with determinant < 0.001                : 0

Iteration 5
Displacement scaling for error reduction set to 0.
Moving mesh using displacement scaling : min:0.237305 max:1
Checking faces in error :
    non-orthogonality > 65  degrees                        : 2
    faces with face pyramid volume < 1e-13                 : 19
    faces with face-decomposition tet quality < 1e-15      : 411
    faces with concavity > 80  degrees                     : 8
    faces with skewness > 4   (internal) or 20  (boundary) : 0
    faces with interpolation weights (0..1)  < 0.02        : 0
    faces with volume ratio of neighbour cells < 0.01      : 0
    faces with face twist < 0.02                           : 95
    faces on cells with determinant < 0.001                : 0

Iteration 6
Moving mesh using displacement scaling : min:0 max:1
Checking faces in error :
    non-orthogonality > 65  degrees                        : 0
    faces with face pyramid volume < 1e-13                 : 0
    faces with face-decomposition tet quality < 1e-15      : 1
    faces with concavity > 80  degrees                     : 0
    faces with skewness > 4   (internal) or 20  (boundary) : 0
    faces with interpolation weights (0..1)  < 0.02        : 0
    faces with volume ratio of neighbour cells < 0.01      : 0
    faces with face twist < 0.02                           : 3
    faces on cells with determinant < 0.001                : 0

Iteration 7
Moving mesh using displacement scaling : min:0 max:1
Checking faces in error :
    non-orthogonality > 65  degrees                        : 0
    faces with face pyramid volume < 1e-13                 : 0
    faces with face-decomposition tet quality < 1e-15      : 0
    faces with concavity > 80  degrees                     : 0
    faces with skewness > 4   (internal) or 20  (boundary) : 0
    faces with interpolation weights (0..1)  < 0.02        : 0
    faces with volume ratio of neighbour cells < 0.01      : 0
    faces with face twist < 0.02                           : 0
    faces on cells with determinant < 0.001                : 0
Successfully moved mesh
Moved mesh in = 6.48 s



Morph iteration 8
-----------------
Calculating patchDisplacement as distance to nearest surface point ...
    non-zone points : attract to nearest of all non-zone surfaces
    zone points     : attract to zone surface only

Wanted displacement : average:0.000330663 min:6.07702e-10 max:0.0178694
Calculated surface displacement in = 0.08 s


Detecting near surfaces ...
Overriding nearest with intersection of close gaps at 1800 out of 61719 points.
Overriding displacement on features :
   implicit features    : false
   explicit features    : true
   multi-patch features : false

Detected 1605 baffle edges out of 123590 edges.
Baffle points     : 1841 of which attracted to :
    feature point : 0
    feature edge  : 1840
    rest          : 1

Initially selected 22119 mesh points out of 61719 for reverse attraction.
Selected 41492 mesh points out of 61719 for reverse attraction.
Stringing feature edges : changed 1437 points
Stringing feature edges : changed 135 points
Stringing feature edges : changed 44 points
Stringing feature edges : changed 14 points
Stringing feature edges : changed 13 points
Stringing feature edges : changed 3 points
Stringing feature edges : changed 0 points
Attraction:
    linear   : max:(0.0122702 0.00212513 0.0168859) avg:(-7.602e-06 3.97471e-06 -5.32756e-06)
    feature  : max:(-0.0168737 -0.000675269 0.0193949) avg:(-6.52455e-07 6.22162e-06 -2.89461e-06)
Feature analysis : total master points :61719 of which attracted to :
    feature point   : 1208
    feature edge    : 11210
    nearest surface : 0
    rest            : 49301

--> FOAM Warning : Displacement (-0.000461055 -0.00212412 -0.00086271) at mesh point 59313 coord (0.249175 -0.269868 0.76067) points through the surrounding patch faces
Smoothing displacement ...
Iteration 0
Iteration 10
Iteration 20
Displacement smoothed in = 1.64 s


Moving mesh ...

Iteration 0
Moving mesh using displacement scaling : min:1 max:1
Checking faces in error :
    non-orthogonality > 65  degrees                        : 74
    faces with face pyramid volume < 1e-13                 : 241
    faces with face-decomposition tet quality < 1e-15      : 1523
    faces with concavity > 80  degrees                     : 40
    faces with skewness > 4   (internal) or 20  (boundary) : 0
    faces with interpolation weights (0..1)  < 0.02        : 0
    faces with volume ratio of neighbour cells < 0.01      : 1
    faces with face twist < 0.02                           : 81
    faces on cells with determinant < 0.001                : 0

Iteration 1
Moving mesh using displacement scaling : min:0.75 max:1
Checking faces in error :
    non-orthogonality > 65  degrees                        : 39
    faces with face pyramid volume < 1e-13                 : 171
[...]
    faces with volume ratio of neighbour cells < 0.01      : 0
    faces with face twist < 0.02                           : 0
    faces on cells with determinant < 0.001                : 0
displacementMedialAxis : Iteration 3
displacementMedialAxis : Displacement scaling for error reduction set to 0.
Moving mesh using displacement scaling : min:0.421875 max:1
Checking faces in error :
    non-orthogonality > 65  degrees                        : 0
    faces with face pyramid volume < 1e-13                 : 0
    faces with face-decomposition tet quality < 1e-15      : 0
    faces with concavity > 80  degrees                     : 0
    faces with skewness > 4   (internal) or 20  (boundary) : 0
    faces with interpolation weights (0..1)  < 0.02        : 0
    faces with volume ratio of neighbour cells < 0.01      : 0
    faces with face twist < 0.02                           : 0
    faces on cells with determinant < 0.001                : 0
displacementMedialAxis : Successfully moved mesh
displacementMedialAxis : Finished moving mesh ...
truncateDisplacement : Unextruded 0 faces due to non-consecutive vertices being extruded.
truncateDisplacement : Unextruded 0 faces due to stringed edges with inconsistent extrusion.

Setting up information for layer truncation ...
Detected 0 baffles across faceZones of type internal


Checking mesh with layer ...
Checking faces in error :
    non-orthogonality > 65  degrees                        : 0
    faces with face pyramid volume < 1e-13                 : 0
    faces with face-decomposition tet quality < 1e-15      : 1
    faces with concavity > 80  degrees                     : 0
    faces with skewness > 4   (internal) or 20  (boundary) : 0
    faces with interpolation weights (0..1)  < 0.02        : 0
    faces with volume ratio of neighbour cells < 0.01      : 0
    faces with face twist < 0.02                           : 0
    faces on cells with determinant < 0.001                : 0
Detected 1 illegal faces (concave, zero area or negative cell pyramid volume)
Extruding 27900 out of 49441 faces (56.4309%). Removed extrusion at 1 faces.
Added 27901 out of 49441 cells (56.4329%).


Layer addition iteration 11
--------------------------

Determining displacement for added points according to pointNormal ...
Detected 0 points with point normal pointing through faces.
Reset displacement at 0 points to average of surrounding points.

displacementMedialAxis : Smoothing using Medial Axis ...
displacementMedialAxis : Reducing layer thickness at 539 nodes where thickness to medial axis distance is large 
displacementMedialAxis : Removing isolated regions ...
- if partially extruded faces make angle < 30
- if exclusively surrounded by non-extruded faces
displacementMedialAxis : Number of isolated points extrusion stopped : 1
fieldSmoother : Smoothing field ...
    Iteration 0   residual 0.000104147
displacementMedialAxis : Moving mesh ...
displacementMedialAxis : Iteration 0
Moving mesh using displacement scaling : min:1 max:1
Checking faces in error :
    non-orthogonality > 65  degrees                        : 1
    faces with face pyramid volume < 1e-13                 : 0
    faces with face-decomposition tet quality < 1e-15      : 3
    faces with concavity > 80  degrees                     : 0
    faces with skewness > 4   (internal) or 20  (boundary) : 0
    faces with interpolation weights (0..1)  < 0.02        : 0
    faces with volume ratio of neighbour cells < 0.01      : 0
    faces with face twist < 0.02                           : 0
    faces on cells with determinant < 0.001                : 0
displacementMedialAxis : Iteration 1
Moving mesh using displacement scaling : min:0.75 max:1
Checking faces in error :
    non-orthogonality > 65  degrees                        : 0
    faces with face pyramid volume < 1e-13                 : 0
    faces with face-decomposition tet quality < 1e-15      : 1
    faces with concavity > 80  degrees                     : 0
    faces with skewness > 4   (internal) or 20  (boundary) : 0
    faces with interpolation weights (0..1)  < 0.02        : 0
    faces with volume ratio of neighbour cells < 0.01      : 0
    faces with face twist < 0.02                           : 0
    faces on cells with determinant < 0.001                : 0
displacementMedialAxis : Iteration 2
Moving mesh using displacement scaling : min:0.5625 max:1
Checking faces in error :
    non-orthogonality > 65  degrees                        : 0
    faces with face pyramid volume < 1e-13                 : 0
    faces with face-decomposition tet quality < 1e-15      : 1
    faces with concavity > 80  degrees                     : 0
    faces with skewness > 4   (internal) or 20  (boundary) : 0
    faces with interpolation weights (0..1)  < 0.02        : 0
    faces with volume ratio of neighbour cells < 0.01      : 0
    faces with face twist < 0.02                           : 0
    faces on cells with determinant < 0.001                : 0
displacementMedialAxis : Iteration 3
displacementMedialAxis : Displacement scaling for error reduction set to 0.
Moving mesh using displacement scaling : min:0.421875 max:1
Checking faces in error :
    non-orthogonality > 65  degrees                        : 0
    faces with face pyramid volume < 1e-13                 : 0
    faces with face-decomposition tet quality < 1e-15      : 0
    faces with concavity > 80  degrees                     : 0
    faces with skewness > 4   (internal) or 20  (boundary) : 0
    faces with interpolation weights (0..1)  < 0.02        : 0
    faces with volume ratio of neighbour cells < 0.01      : 0
    faces with face twist < 0.02                           : 0
    faces on cells with determinant < 0.001                : 0
displacementMedialAxis : Successfully moved mesh
displacementMedialAxis : Finished moving mesh ...
truncateDisplacement : Unextruded 0 faces due to non-consecutive vertices being extruded.
truncateDisplacement : Unextruded 0 faces due to stringed edges with inconsistent extrusion.

Setting up information for layer truncation ...
Detected 0 baffles across faceZones of type internal


Checking mesh with layer ...
Checking faces in error :
    non-orthogonality > 65  degrees                        : 0
    faces with face pyramid volume < 1e-13                 : 0
    faces with face-decomposition tet quality < 1e-15      : 1
    faces with concavity > 80  degrees                     : 0
    faces with skewness > 4   (internal) or 20  (boundary) : 0
    faces with interpolation weights (0..1)  < 0.02        : 0
    faces with volume ratio of neighbour cells < 0.01      : 0
    faces with face twist < 0.02                           : 0
    faces on cells with determinant < 0.001                : 0
Detected 1 illegal faces (concave, zero area or negative cell pyramid volume)
Extruding 27898 out of 49441 faces (56.4269%). Removed extrusion at 1 faces.
Added 27899 out of 49441 cells (56.4289%).


Layer addition iteration 12
--------------------------

Determining displacement for added points according to pointNormal ...
Detected 0 points with point normal pointing through faces.
Reset displacement at 0 points to average of surrounding points.

displacementMedialAxis : Smoothing using Medial Axis ...
displacementMedialAxis : Reducing layer thickness at 539 nodes where thickness to medial axis distance is large 
displacementMedialAxis : Removing isolated regions ...
- if partially extruded faces make angle < 30
- if exclusively surrounded by non-extruded faces
displacementMedialAxis : Number of isolated points extrusion stopped : 1
fieldSmoother : Smoothing field ...
    Iteration 0   residual 0.000104123
displacementMedialAxis : Moving mesh ...
displacementMedialAxis : Iteration 0
Moving mesh using displacement scaling : min:1 max:1
Checking faces in error :
    non-orthogonality > 65  degrees                        : 1
    faces with face pyramid volume < 1e-13                 : 0
    faces with face-decomposition tet quality < 1e-15      : 3
    faces with concavity > 80  degrees                     : 0
    faces with skewness > 4   (internal) or 20  (boundary) : 0
    faces with interpolation weights (0..1)  < 0.02        : 0
    faces with volume ratio of neighbour cells < 0.01      : 0
    faces with face twist < 0.02                           : 0
    faces on cells with determinant < 0.001                : 0
displacementMedialAxis : Iteration 1
Moving mesh using displacement scaling : min:0.75 max:1
Checking faces in error :
    non-orthogonality > 65  degrees                        : 0
    faces with face pyramid volume < 1e-13                 : 0
    faces with face-decomposition tet quality < 1e-15      : 1
    faces with concavity > 80  degrees                     : 0
    faces with skewness > 4   (internal) or 20  (boundary) : 0
    faces with interpolation weights (0..1)  < 0.02        : 0
    faces with volume ratio of neighbour cells < 0.01      : 0
    faces with face twist < 0.02                           : 0
    faces on cells with determinant < 0.001                : 0
displacementMedialAxis : Iteration 2
Moving mesh using displacement scaling : min:0.5625 max:1
Checking faces in error :
    non-orthogonality > 65  degrees                        : 0
    faces with face pyramid volume < 1e-13                 : 0
    faces with face-decomposition tet quality < 1e-15      : 1
    faces with concavity > 80  degrees                     : 0
    faces with skewness > 4   (internal) or 20  (boundary) : 0
    faces with interpolation weights (0..1)  < 0.02        : 0
    faces with volume ratio of neighbour cells < 0.01      : 0
    faces with face twist < 0.02                           : 0
    faces on cells with determinant < 0.001                : 0
displacementMedialAxis : Iteration 3
displacementMedialAxis : Displacement scaling for error reduction set to 0.
Moving mesh using displacement scaling : min:0.421875 max:1
Checking faces in error :
    non-orthogonality > 65  degrees                        : 0
    faces with face pyramid volume < 1e-13                 : 0
    faces with face-decomposition tet quality < 1e-15      : 0
    faces with concavity > 80  degrees                     : 0
    faces with skewness > 4   (internal) or 20  (boundary) : 0
    faces with interpolation weights (0..1)  < 0.02        : 0
    faces with volume ratio of neighbour cells < 0.01      : 0
    faces with face twist < 0.02                           : 0
    faces on cells with determinant < 0.001                : 0
displacementMedialAxis : Successfully moved mesh
displacementMedialAxis : Finished moving mesh ...
truncateDisplacement : Unextruded 0 faces due to non-consecutive vertices being extruded.
truncateDisplacement : Unextruded 0 faces due to stringed edges with inconsistent extrusion.

Setting up information for layer truncation ...
Detected 0 baffles across faceZones of type internal


Checking mesh with layer ...
Checking faces in error :
    non-orthogonality > 65  degrees                        : 0
    faces with face pyramid volume < 1e-13                 : 0
    faces with face-decomposition tet quality < 1e-15      : 0
    faces with concavity > 80  degrees                     : 0
    faces with skewness > 4   (internal) or 20  (boundary) : 0
    faces with interpolation weights (0..1)  < 0.02        : 0
    faces with volume ratio of neighbour cells < 0.01      : 0
    faces with face twist < 0.02                           : 0
    faces on cells with determinant < 0.001                : 0
Detected 0 illegal faces (concave, zero area or negative cell pyramid volume)
Extruding 27896 out of 49441 faces (56.4228%). Removed extrusion at 0 faces.
Added 27896 out of 49441 cells (56.4228%).
Edge intersection testing:
    Number of edges             : 1107965
    Number of edges to retest   : 0
    Number of intersected edges : 64856
Mesh with layers : cells:353578  faces:1107965  points:406167

patch                                            faces        layers        overall thickness
                                                          target   mesh     [m]       [%]
-----                                            -----    -----    ----     ---       ---
lowerWall                                        5349     1        0.994    0.0244    93.3    
motorBike_frt-fairing:001%1                      5367     1        0.342    0.000831  18.1    
motorBike_windshield:002%2                       51       1        0.843    0.00315   67.3    
motorBike_rr-wh-rim:005%5                        129      1        0.473    0.000781  20.3    
motorBike_rr-wh-rim:010%10                       354      1        0.158    0.000208  5.35    
motorBike_fr-wh-rim:011%11                       498      1        0.227    0.000231  7.56    
motorBike_fr-wh-brake-disk:012%12                45       1        0        0         0       
motorBike_frame:016-shadow%13                    102      1        0.0294   3.04e-05  0.863   
motorBike_rear-susp:014%14                       833      1        0.288    0.000376  9.43    
motorBike_rear-susp:014-shadow%15                448      1        0.281    0.0004    9.82    
motorBike_frame:016%16                           61       1        0        0         0       
motorBike_rr-wh-rim:005-shadow%17                61       1        0.475    0.000771  19.1    
motorBike_rr-wh-chain-hub:022%22                 128      1        0.00781  6.3e-06   0.134   
motorBike_rearseat%24                            421      1        0.703    0.00219   47.2    
motorBike_frt-fairing%25                         620      1        0.713    0.00188   41.4    
motorBike_windshield%26                          371      1        0.0863   8.3e-05   1.77    
motorBike_headlights%27                          156      1        0.962    0.00367   78.2    
motorBike_driversseat%28                         351      1        0.274    0.000401  9.72    
motorBike_rear-body%29                           2054     1        0.664    0.00174   38.2    
motorBike_fuel-tank%30                           876      1        0.825    0.00286   62.3    
motorBike_exhaust%31                             2339     1        0.408    0.00166   35.7    
motorBike_rr-wh-rim%32                           1376     1        0.703    0.00172   38.1    
motorBike_fr-mud-guard%33                        612      1        0.289    0.000586  12.7    
motorBike_fr-wh-rim%34                           573      1        0.37     0.000604  14.5    
motorBike_fr-wh-brake-disk%35                    419      1        0.391    0.000399  12.8    
motorBike_fr-brake-caliper%36                    156      1        0        0         0       
motorBike_fr-wh-tyre%37                          1096     1        0.607    0.00189   40.4    
motorBike_hbars%38                               526      1        0        0         0       
motorBike_fr-forks%39                            1100     1        0.425    0.00145   31.5    
motorBike_chain%40                               458      1        0.0524   4.27e-05  1.68    
motorBike_rr-wh-tyre%41                          1845     1        0.796    0.00291   62      
motorBike_square-dial%42                         6        1        1        0.00165   35.2    
motorBike_round-dial%43                          15       1        0.733    0.00063   20.4    
motorBike_dial-holder%44                         89       1        0.157    0.000101  5.29    
motorBike_rear-susp%45                           1731     1        0.402    0.000588  15.3    
motorBike_rear-brake-lights%46                   54       1        0        0         0       
motorBike_rear-light-bracket%47                  158      1        0.449    0.000653  17.3    
motorBike_frame%48                               2011     1        0.521    0.00107   25.3    
motorBike_rear-mud-guard%49                      631      1        0.32     0.000646  13.9    
motorBike_rear-susp-spring-damp%50               73       1        0        0         0       
motorBike_fairing-inner-plate%51                 438      1        0.596    0.00163   36.6    
motorBike_clutch-housing%52                      924      1        0.705    0.0015    34.8    
motorBike_radiator%53                            47       1        0        0         0       
motorBike_water-pipe%54                          99       1        0        0         0       
motorBike_water-pump%55                          71       1        0        0         0       
motorBike_engine%56                              2292     1        0.74     0.00162   37.3    
motorBike_rear-shock-link%57                     26       1        0        0         0       
motorBike_rear-brake-fluid-pot-bracket%58        41       1        0.415    0.000372  12.9    
motorBike_rear-brake-fluid-pot%59                51       1        0        0         0       
motorBike_footpeg%60                             90       1        0        0         0       
motorBike_rr-wh-chain-hub%61                     125      1        0.176    0.000191  5.36    
motorBike_rear-brake-caliper%62                  142      1        0.0845   7.95e-05  2.87    
motorBike_rider-helmet%65                        763      1        0.948    0.00377   81.7    
motorBike_rider-visor%66                         165      1        1        0.00446   95.2    
motorBike_rider-boots%67                         1009     1        0.824    0.00271   60.1    
motorBike_rider-gloves%68                        307      1        0.176    0.000257  5.49    
motorBike_rider-body%69                          4581     1        0.865    0.00329   68.1    
motorBike_frame:0%70                             37       1        0.0541   3.24e-05  0.692   
motorBike_frt-fairing:001-shadow%74              3236     1        0.331    0.000835  18.2    
motorBike_windshield-shadow%75                   258      1        0.0736   7.74e-05  1.65    
motorBike_fr-mud-guard-shadow%81                 379      1        0.259    0.000522  11.2    
motorBike_fr-wh-brake-disk-shadow%83             217      1        0.401    0.000401  13.3    
motorBike_rear-mud-guard-shadow%84               421      1        0.283    0.000539  11.6    
motorBike_rear-susp-spring-damp-shadow%85        51       1        0        0         0       
motorBike_radiator-shadow%86                     26       1        0        0         0       
motorBike_rear-shock-link-shadow%87              10       1        0        0         0       
motorBike_rear-brake-fluid-pot-bracket-shadow%88 28       1        0.464    0.000449  16.8    
motorBike_rr-wh-chain-hub-shadow%89              64       1        0.234    0.000217  7.61    

Writing 27896 added cells to cellSet addedCells
Writing 0 faces inside added layer to faceSet layerFaces

Writing fields with layer information:
    nSurfaceLayers    : actual number of layers
    thickness         : overall layer thickness
    thicknessFraction : overall layer thickness (fraction of desired thickness)

Layer mesh : cells:353578  faces:1107965  points:406167
Cells per refinement level:
    0	1018
    1	1872
    2	5320
    3	9824
    4	134895
    5	23709
    6	176940
Writing mesh to time constant
Wrote mesh in = 0.07 s.
Layers added in = 64.17 s.
Checking final mesh ...
Checking faces in error :
    non-orthogonality > 65  degrees                        : 0
    faces with face pyramid volume < 1e-13                 : 0
    faces with face-decomposition tet quality < 1e-15      : 0
    faces with concavity > 80  degrees                     : 0
    faces with skewness > 4   (internal) or 20  (boundary) : 0
    faces with interpolation weights (0..1)  < 0.02        : 0
    faces with volume ratio of neighbour cells < 0.01      : 0
    faces with face twist < 0.02                           : 0
    faces on cells with determinant < 0.001                : 0
Finished meshing without any errors
Finished meshing in = 167.97 s.
End

