/*---------------------------------------------------------------------------*\
| =========                 |                                                 |
| \\      /  F ield         | OpenFOAM: The Open Source CFD Toolbox           |
|  \\    /   O peration     | Version:  2512                                  |
|   \\  /    A nd           | Website:  www.openfoam.com                      |
|    \\/     M anipulation  |                                                 |
\*---------------------------------------------------------------------------*/
Build  : _87ed40d2-20251219 OPENFOAM=2512 version=2512
Arch   : "LSB;label=32;scalar=64"
Exec   : icoFoam
Date   : Mar 06 2026
Time   : 22:05:37
Host   : fedora
PID    : 31958
I/O    : uncollated
Case   : /home/syphonic/OpenFOAM/run/cavityFine
nProcs : 1
trapFpe: Floating point exception trapping enabled (FOAM_SIGFPE).
memory pool : not available
fileModificationChecking : Monitoring run-time modified files using timeStampMaster (fileModificationSkew 5, maxFileModificationPolls 20)
allowSystemOperations : Allowing user-supplied system call operations

// * * * * * * * * * * * * * * * * * * * * * * * * * * * * * * * * * * * * * //
Create time

Create mesh for time = 0


PISO: Operating solver in PISO mode

Reading transportProperties

Reading field p

Reading field U

Reading/calculating face flux field phi


Starting time loop

Time = 0.0025

Courant Number mean: 0 max: 0
smoothSolver:  Solving for Ux, Initial residual = 1, Final residual = 4.41222e-06, No Iterations 12
smoothSolver:  Solving for Uy, Initial residual = 0, Final residual = 0, No Iterations 0
DICPCG:  Solving for p, Initial residual = 1, Final residual = 0.0497998, No Iterations 12
time step continuity errors : sum local = 0.000157779, global = 1.32349e-21, cumulative = 1.32349e-21
DICPCG:  Solving for p, Initial residual = 0.50016, Final residual = 2.58722e-07, No Iterations 35
time step continuity errors : sum local = 9.6809e-10, global = 1.33962e-19, cumulative = 1.35285e-19
ExecutionTime = 0 s  ClockTime = 0 s

Time = 0.005

Courant Number mean: 0.0368173 max: 0.247186
smoothSolver:  Solving for Ux, Initial residual = 0.189809, Final residual = 6.93781e-06, No Iterations 11
smoothSolver:  Solving for Uy, Initial residual = 0.269818, Final residual = 9.95327e-06, No Iterations 11
DICPCG:  Solving for p, Initial residual = 0.308333, Final residual = 0.0125913, No Iterations 21
time step continuity errors : sum local = 4.82221e-05, global = 1.24408e-19, cumulative = 2.59693e-19
DICPCG:  Solving for p, Initial residual = 0.205772, Final residual = 7.6108e-07, No Iterations 31
time step continuity errors : sum local = 3.18312e-09, global = 1.3725e-19, cumulative = 3.96943e-19
ExecutionTime = 0.01 s  ClockTime = 0 s

Time = 0.0075

Courant Number mean: 0.0563763 max: 0.337733
smoothSolver:  Solving for Ux, Initial residual = 0.0702967, Final residual = 5.49994e-06, No Iterations 10
smoothSolver:  Solving for Uy, Initial residual = 0.110036, Final residual = 4.91994e-06, No Iterations 11
DICPCG:  Solving for p, Initial residual = 0.106767, Final residual = 0.00319679, No Iterations 11
time step continuity errors : sum local = 1.43371e-05, global = 3.46589e-19, cumulative = 7.43532e-19
DICPCG:  Solving for p, Initial residual = 0.0725858, Final residual = 8.04744e-07, No Iterations 31
time step continuity errors : sum local = 2.87616e-09, global = -2.75596e-19, cumulative = 4.67936e-19
ExecutionTime = 0.01 s  ClockTime = 0 s

Time = 0.01

Courant Number mean: 0.0679927 max: 0.372113
smoothSolver:  Solving for Ux, Initial residual = 0.0393687, Final residual = 7.99198e-06, No Iterations 9
smoothSolver:  Solving for Uy, Initial residual = 0.0652618, Final residual = 7.62137e-06, No Iterations 10
DICPCG:  Solving for p, Initial residual = 0.0551576, Final residual = 0.00148168, No Iterations 11
time step continuity errors : sum local = 6.0843e-06, global = 6.94832e-20, cumulative = 5.37419e-19
DICPCG:  Solving for p, Initial residual = 0.0381332, Final residual = 5.47732e-07, No Iterations 30
time step continuity errors : sum local = 1.98795e-09, global = -2.27681e-19, cumulative = 3.09738e-19
ExecutionTime = 0.01 s  ClockTime = 0 s

Time = 0.0125

Courant Number mean: 0.0758376 max: 0.388723
smoothSolver:  Solving for Ux, Initial residual = 0.0261975, Final residual = 5.91144e-06, No Iterations 9
smoothSolver:  Solving for Uy, Initial residual = 0.0438635, Final residual = 5.38832e-06, No Iterations 10
DICPCG:  Solving for p, Initial residual = 0.0349241, Final residual = 0.00119372, No Iterations 11
time step continuity errors : sum local = 5.90207e-06, global = 1.63782e-19, cumulative = 4.7352e-19
DICPCG:  Solving for p, Initial residual = 0.0241729, Final residual = 4.45201e-07, No Iterations 30
time step continuity errors : sum local = 1.61817e-09, global = 1.53401e-19, cumulative = 6.2692e-19
ExecutionTime = 0.01 s  ClockTime = 0 s

Time = 0.015

Courant Number mean: 0.0815832 max: 0.398323
smoothSolver:  Solving for Ux, Initial residual = 0.0190565, Final residual = 4.59747e-06, No Iterations 9
smoothSolver:  Solving for Uy, Initial residual = 0.0326646, Final residual = 4.11841e-06, No Iterations 10
DICPCG:  Solving for p, Initial residual = 0.0261122, Final residual = 0.000685415, No Iterations 11
time step continuity errors : sum local = 2.65349e-06, global = 2.08698e-19, cumulative = 8.35618e-19
DICPCG:  Solving for p, Initial residual = 0.0175961, Final residual = 3.81732e-07, No Iterations 30
time step continuity errors : sum local = 1.40004e-09, global = 1.20396e-19, cumulative = 9.56014e-19
ExecutionTime = 0.01 s  ClockTime = 0 s

Time = 0.0175

Courant Number mean: 0.0861782 max: 0.404589
smoothSolver:  Solving for Ux, Initial residual = 0.0147117, Final residual = 9.34706e-06, No Iterations 8
smoothSolver:  Solving for Uy, Initial residual = 0.025039, Final residual = 7.90294e-06, No Iterations 9
DICPCG:  Solving for p, Initial residual = 0.019475, Final residual = 0.000968763, No Iterations 11
time step continuity errors : sum local = 5.1044e-06, global = -3.39806e-19, cumulative = 6.16208e-19
DICPCG:  Solving for p, Initial residual = 0.0135227, Final residual = 9.83125e-07, No Iterations 29
time step continuity errors : sum local = 3.61224e-09, global = -1.45253e-19, cumulative = 4.70955e-19
ExecutionTime = 0.01 s  ClockTime = 0 s

Time = 0.02

Courant Number mean: 0.0898981 max: 0.40901
smoothSolver:  Solving for Ux, Initial residual = 0.011617, Final residual = 7.6235e-06, No Iterations 8
smoothSolver:  Solving for Uy, Initial residual = 0.0204045, Final residual = 6.48476e-06, No Iterations 9
DICPCG:  Solving for p, Initial residual = 0.016441, Final residual = 0.00057523, No Iterations 11
time step continuity errors : sum local = 2.9462e-06, global = 2.48981e-19, cumulative = 7.19937e-19
DICPCG:  Solving for p, Initial residual = 0.010966, Final residual = 7.73576e-07, No Iterations 29
time step continuity errors : sum local = 2.85682e-09, global = -3.19664e-19, cumulative = 4.00273e-19
ExecutionTime = 0.01 s  ClockTime = 0 s

Time = 0.0225

Courant Number mean: 0.0929489 max: 0.412274
smoothSolver:  Solving for Ux, Initial residual = 0.009654, Final residual = 6.63543e-06, No Iterations 8
smoothSolver:  Solving for Uy, Initial residual = 0.0163422, Final residual = 5.24439e-06, No Iterations 9
DICPCG:  Solving for p, Initial residual = 0.0131472, Final residual = 0.000275704, No Iterations 22
time step continuity errors : sum local = 1.02013e-06, global = 7.84581e-20, cumulative = 4.78731e-19
DICPCG:  Solving for p, Initial residual = 0.00902539, Final residual = 5.07497e-07, No Iterations 29
time step continuity errors : sum local = 1.87399e-09, global = 2.8455e-19, cumulative = 7.63281e-19
ExecutionTime = 0.01 s  ClockTime = 0 s

Time = 0.025

Courant Number mean: 0.0954784 max: 0.414775
smoothSolver:  Solving for Ux, Initial residual = 0.00781144, Final residual = 5.55195e-06, No Iterations 8
smoothSolver:  Solving for Uy, Initial residual = 0.013675, Final residual = 4.43087e-06, No Iterations 9
DICPCG:  Solving for p, Initial residual = 0.0103388, Final residual = 0.000375455, No Iterations 11
time step continuity errors : sum local = 1.88736e-06, global = 2.94391e-19, cumulative = 1.05767e-18
DICPCG:  Solving for p, Initial residual = 0.00718375, Final residual = 9.68947e-07, No Iterations 28
time step continuity errors : sum local = 3.59964e-09, global = -7.90371e-20, cumulative = 9.78635e-19
ExecutionTime = 0.01 s  ClockTime = 0 s

Time = 0.0275

Courant Number mean: 0.0975889 max: 0.416728
smoothSolver:  Solving for Ux, Initial residual = 0.00651797, Final residual = 4.71464e-06, No Iterations 8
smoothSolver:  Solving for Uy, Initial residual = 0.0115822, Final residual = 9.20487e-06, No Iterations 8
DICPCG:  Solving for p, Initial residual = 0.00896329, Final residual = 0.000405783, No Iterations 10
time step continuity errors : sum local = 1.61994e-06, global = -5.26852e-19, cumulative = 4.51783e-19
DICPCG:  Solving for p, Initial residual = 0.0060838, Final residual = 6.76748e-07, No Iterations 28
time step continuity errors : sum local = 2.53029e-09, global = -8.09562e-19, cumulative = -3.57779e-19
ExecutionTime = 0.01 s  ClockTime = 0 s

Time = 0.03

Courant Number mean: 0.0993683 max: 0.41828
smoothSolver:  Solving for Ux, Initial residual = 0.0055482, Final residual = 4.09506e-06, No Iterations 8
smoothSolver:  Solving for Uy, Initial residual = 0.00975054, Final residual = 7.79264e-06, No Iterations 8
DICPCG:  Solving for p, Initial residual = 0.00735949, Final residual = 0.000137497, No Iterations 22
time step continuity errors : sum local = 5.13986e-07, global = 2.56343e-19, cumulative = -1.01436e-19
DICPCG:  Solving for p, Initial residual = 0.00501697, Final residual = 6.92565e-07, No Iterations 27
time step continuity errors : sum local = 2.61211e-09, global = -1.23664e-20, cumulative = -1.13803e-19
ExecutionTime = 0.01 s  ClockTime = 0 s

Time = 0.0325

Courant Number mean: 0.100885 max: 0.419533
smoothSolver:  Solving for Ux, Initial residual = 0.00471592, Final residual = 8.66695e-06, No Iterations 7
smoothSolver:  Solving for Uy, Initial residual = 0.00832338, Final residual = 6.67162e-06, No Iterations 8
DICPCG:  Solving for p, Initial residual = 0.00617851, Final residual = 0.000260094, No Iterations 9
time step continuity errors : sum local = 1.27681e-06, global = 6.48799e-19, cumulative = 5.34997e-19
DICPCG:  Solving for p, Initial residual = 0.00428525, Final residual = 5.27748e-07, No Iterations 27
time step continuity errors : sum local = 1.99968e-09, global = 3.53868e-19, cumulative = 8.88864e-19
ExecutionTime = 0.01 s  ClockTime = 0 s

Time = 0.035

Courant Number mean: 0.102177 max: 0.420553
smoothSolver:  Solving for Ux, Initial residual = 0.00398919, Final residual = 7.43071e-06, No Iterations 7
smoothSolver:  Solving for Uy, Initial residual = 0.00724084, Final residual = 5.79797e-06, No Iterations 8
DICPCG:  Solving for p, Initial residual = 0.0054661, Final residual = 0.000256596, No Iterations 9
time step continuity errors : sum local = 1.09106e-06, global = 9.76487e-20, cumulative = 9.86513e-19
DICPCG:  Solving for p, Initial residual = 0.00371808, Final residual = 9.94466e-07, No Iterations 26
time step continuity errors : sum local = 3.76222e-09, global = -7.38259e-20, cumulative = 9.12687e-19
ExecutionTime = 0.01 s  ClockTime = 0 s

Time = 0.0375

Courant Number mean: 0.103284 max: 0.421392
smoothSolver:  Solving for Ux, Initial residual = 0.00346566, Final residual = 6.53357e-06, No Iterations 7
smoothSolver:  Solving for Uy, Initial residual = 0.00618249, Final residual = 4.97083e-06, No Iterations 8
DICPCG:  Solving for p, Initial residual = 0.00458267, Final residual = 0.000222636, No Iterations 9
time step continuity errors : sum local = 1.19084e-06, global = -4.87912e-19, cumulative = 4.24775e-19
DICPCG:  Solving for p, Initial residual = 0.00316061, Final residual = 8.00146e-07, No Iterations 26
time step continuity errors : sum local = 3.03311e-09, global = -9.95057e-19, cumulative = -5.70282e-19
ExecutionTime = 0.01 s  ClockTime = 0 s

Time = 0.04

Courant Number mean: 0.104243 max: 0.422088
smoothSolver:  Solving for Ux, Initial residual = 0.00296502, Final residual = 5.6184e-06, No Iterations 7
smoothSolver:  Solving for Uy, Initial residual = 0.00543986, Final residual = 4.36134e-06, No Iterations 8
DICPCG:  Solving for p, Initial residual = 0.00412999, Final residual = 0.000186368, No Iterations 11
time step continuity errors : sum local = 9.47883e-07, global = -3.05561e-19, cumulative = -8.75843e-19
DICPCG:  Solving for p, Initial residual = 0.00276221, Final residual = 5.50901e-07, No Iterations 27
time step continuity errors : sum local = 2.08739e-09, global = 2.89513e-22, cumulative = -8.75553e-19
ExecutionTime = 0.01 s  ClockTime = 0 s

Time = 0.0425

Courant Number mean: 0.105072 max: 0.422667
smoothSolver:  Solving for Ux, Initial residual = 0.00264105, Final residual = 5.03988e-06, No Iterations 7
smoothSolver:  Solving for Uy, Initial residual = 0.00461378, Final residual = 9.08389e-06, No Iterations 7
DICPCG:  Solving for p, Initial residual = 0.00354466, Final residual = 0.000150359, No Iterations 21
time step continuity errors : sum local = 5.64233e-07, global = -4.51226e-20, cumulative = -9.20676e-19
DICPCG:  Solving for p, Initial residual = 0.00242662, Final residual = 6.25716e-07, No Iterations 26
time step continuity errors : sum local = 2.36756e-09, global = 1.55634e-19, cumulative = -7.65042e-19
ExecutionTime = 0.02 s  ClockTime = 0 s

Time = 0.045

Courant Number mean: 0.105791 max: 0.423154
smoothSolver:  Solving for Ux, Initial residual = 0.00226584, Final residual = 4.3579e-06, No Iterations 7
smoothSolver:  Solving for Uy, Initial residual = 0.00405747, Final residual = 8.00075e-06, No Iterations 7
DICPCG:  Solving for p, Initial residual = 0.00293506, Final residual = 8.13534e-05, No Iterations 9
time step continuity errors : sum local = 4.26891e-07, global = -6.62559e-20, cumulative = -8.31298e-19
DICPCG:  Solving for p, Initial residual = 0.00201682, Final residual = 8.73622e-07, No Iterations 26
time step continuity errors : sum local = 3.31824e-09, global = -2.02825e-19, cumulative = -1.03412e-18
ExecutionTime = 0.02 s  ClockTime = 0 s

Time = 0.0475

Courant Number mean: 0.106425 max: 0.423563
smoothSolver:  Solving for Ux, Initial residual = 0.00196251, Final residual = 9.26916e-06, No Iterations 6
smoothSolver:  Solving for Uy, Initial residual = 0.00357322, Final residual = 7.03414e-06, No Iterations 7
DICPCG:  Solving for p, Initial residual = 0.00258264, Final residual = 7.52472e-05, No Iterations 9
time step continuity errors : sum local = 3.14881e-07, global = -2.27475e-19, cumulative = -1.2616e-18
DICPCG:  Solving for p, Initial residual = 0.00175498, Final residual = 8.86741e-07, No Iterations 26
time step continuity errors : sum local = 3.37281e-09, global = 9.8145e-20, cumulative = -1.16345e-18
ExecutionTime = 0.02 s  ClockTime = 0 s

Time = 0.05

Courant Number mean: 0.106982 max: 0.423909
smoothSolver:  Solving for Ux, Initial residual = 0.00172319, Final residual = 8.18363e-06, No Iterations 6
smoothSolver:  Solving for Uy, Initial residual = 0.00310738, Final residual = 6.13125e-06, No Iterations 7
DICPCG:  Solving for p, Initial residual = 0.00221103, Final residual = 7.50137e-05, No Iterations 9
time step continuity errors : sum local = 4.11468e-07, global = 7.5687e-19, cumulative = -4.06582e-19
DICPCG:  Solving for p, Initial residual = 0.00152149, Final residual = 7.72181e-07, No Iterations 26
time step continuity errors : sum local = 2.94451e-09, global = -1.87398e-19, cumulative = -5.9398e-19
ExecutionTime = 0.02 s  ClockTime = 0 s

Time = 0.0525

Courant Number mean: 0.107474 max: 0.424203
smoothSolver:  Solving for Ux, Initial residual = 0.00149493, Final residual = 7.13227e-06, No Iterations 6
smoothSolver:  Solving for Uy, Initial residual = 0.00275197, Final residual = 5.41454e-06, No Iterations 7
DICPCG:  Solving for p, Initial residual = 0.00198177, Final residual = 6.97397e-05, No Iterations 9
time step continuity errors : sum local = 3.43986e-07, global = -2.74086e-19, cumulative = -8.68066e-19
DICPCG:  Solving for p, Initial residual = 0.00133378, Final residual = 6.97757e-07, No Iterations 26
time step continuity errors : sum local = 2.65381e-09, global = 1.88556e-19, cumulative = -6.7951e-19
ExecutionTime = 0.02 s  ClockTime = 0 s

Time = 0.055

Courant Number mean: 0.107903 max: 0.424454
smoothSolver:  Solving for Ux, Initial residual = 0.00132823, Final residual = 6.34817e-06, No Iterations 6
smoothSolver:  Solving for Uy, Initial residual = 0.00238535, Final residual = 4.7075e-06, No Iterations 7
DICPCG:  Solving for p, Initial residual = 0.00171704, Final residual = 4.89215e-05, No Iterations 19
time step continuity errors : sum local = 1.87448e-07, global = -1.39297e-19, cumulative = -8.18807e-19
DICPCG:  Solving for p, Initial residual = 0.00116622, Final residual = 7.08616e-07, No Iterations 26
time step continuity errors : sum local = 2.69447e-09, global = 1.97613e-19, cumulative = -6.21194e-19
ExecutionTime = 0.02 s  ClockTime = 0 s

Time = 0.0575

Courant Number mean: 0.108279 max: 0.424668
smoothSolver:  Solving for Ux, Initial residual = 0.00115898, Final residual = 5.55863e-06, No Iterations 6
smoothSolver:  Solving for Uy, Initial residual = 0.00210694, Final residual = 4.15773e-06, No Iterations 7
DICPCG:  Solving for p, Initial residual = 0.00146326, Final residual = 7.0308e-05, No Iterations 8
time step continuity errors : sum local = 3.10517e-07, global = 2.465e-20, cumulative = -5.96544e-19
DICPCG:  Solving for p, Initial residual = 0.00100314, Final residual = 5.66e-07, No Iterations 26
time step continuity errors : sum local = 2.15779e-09, global = 2.64615e-19, cumulative = -3.31929e-19
ExecutionTime = 0.02 s  ClockTime = 0 s

Time = 0.06

Courant Number mean: 0.10861 max: 0.424852
smoothSolver:  Solving for Ux, Initial residual = 0.00101631, Final residual = 4.88005e-06, No Iterations 6
smoothSolver:  Solving for Uy, Initial residual = 0.00186118, Final residual = 8.95777e-06, No Iterations 6
DICPCG:  Solving for p, Initial residual = 0.00129052, Final residual = 5.36713e-05, No Iterations 8
time step continuity errors : sum local = 2.07743e-07, global = -2.86204e-19, cumulative = -6.18133e-19
DICPCG:  Solving for p, Initial residual = 0.00087486, Final residual = 4.56239e-07, No Iterations 26
time step continuity errors : sum local = 1.7339e-09, global = 4.79434e-19, cumulative = -1.38699e-19
ExecutionTime = 0.02 s  ClockTime = 0 s

Time = 0.0625

Courant Number mean: 0.108902 max: 0.42501
smoothSolver:  Solving for Ux, Initial residual = 0.000899031, Final residual = 4.31988e-06, No Iterations 6
smoothSolver:  Solving for Uy, Initial residual = 0.00163056, Final residual = 7.85957e-06, No Iterations 6
DICPCG:  Solving for p, Initial residual = 0.00111918, Final residual = 5.04931e-05, No Iterations 8
time step continuity errors : sum local = 2.39431e-07, global = -1.69158e-20, cumulative = -1.55615e-19
DICPCG:  Solving for p, Initial residual = 0.000766059, Final residual = 3.92696e-07, No Iterations 26
time step continuity errors : sum local = 1.49609e-09, global = 4.55818e-19, cumulative = 3.00203e-19
ExecutionTime = 0.02 s  ClockTime = 0 s

Time = 0.065

Courant Number mean: 0.109158 max: 0.425146
smoothSolver:  Solving for Ux, Initial residual = 0.000788259, Final residual = 9.24557e-06, No Iterations 5
smoothSolver:  Solving for Uy, Initial residual = 0.00144607, Final residual = 6.9558e-06, No Iterations 6
DICPCG:  Solving for p, Initial residual = 0.000991287, Final residual = 3.93109e-05, No Iterations 8
time step continuity errors : sum local = 1.75333e-07, global = 3.53618e-20, cumulative = 3.35565e-19
DICPCG:  Solving for p, Initial residual = 0.00066593, Final residual = 3.4704e-07, No Iterations 26
time step continuity errors : sum local = 1.31964e-09, global = 4.06063e-19, cumulative = 7.41628e-19
ExecutionTime = 0.02 s  ClockTime = 0 s

Time = 0.0675

Courant Number mean: 0.109383 max: 0.425263
smoothSolver:  Solving for Ux, Initial residual = 0.000701127, Final residual = 8.22117e-06, No Iterations 5
smoothSolver:  Solving for Uy, Initial residual = 0.00126447, Final residual = 6.0943e-06, No Iterations 6
DICPCG:  Solving for p, Initial residual = 0.000867835, Final residual = 4.30251e-05, No Iterations 8
time step continuity errors : sum local = 2.22193e-07, global = 8.19116e-19, cumulative = 1.56074e-18
DICPCG:  Solving for p, Initial residual = 0.000590429, Final residual = 8.56064e-07, No Iterations 25
time step continuity errors : sum local = 3.2375e-09, global = -6.51239e-19, cumulative = 9.09504e-19
ExecutionTime = 0.02 s  ClockTime = 0 s

Time = 0.07

Courant Number mean: 0.109581 max: 0.425365
smoothSolver:  Solving for Ux, Initial residual = 0.000611485, Final residual = 7.18801e-06, No Iterations 5
smoothSolver:  Solving for Uy, Initial residual = 0.00113018, Final residual = 5.42736e-06, No Iterations 6
DICPCG:  Solving for p, Initial residual = 0.000779724, Final residual = 3.51648e-05, No Iterations 8
time step continuity errors : sum local = 1.82062e-07, global = 3.80834e-19, cumulative = 1.29034e-18
DICPCG:  Solving for p, Initial residual = 0.000518196, Final residual = 8.17268e-07, No Iterations 25
time step continuity errors : sum local = 3.10049e-09, global = -1.35285e-19, cumulative = 1.15505e-18
ExecutionTime = 0.02 s  ClockTime = 0 s

Time = 0.0725

Courant Number mean: 0.109755 max: 0.425453
smoothSolver:  Solving for Ux, Initial residual = 0.000548826, Final residual = 6.43935e-06, No Iterations 5
smoothSolver:  Solving for Uy, Initial residual = 0.000981993, Final residual = 4.73063e-06, No Iterations 6
DICPCG:  Solving for p, Initial residual = 0.0006898, Final residual = 3.29187e-05, No Iterations 16
time step continuity errors : sum local = 1.25973e-07, global = -5.68108e-19, cumulative = 5.86945e-19
DICPCG:  Solving for p, Initial residual = 0.000471261, Final residual = 6.59886e-07, No Iterations 25
time step continuity errors : sum local = 2.51534e-09, global = 1.06293e-19, cumulative = 6.93237e-19
ExecutionTime = 0.02 s  ClockTime = 0 s

Time = 0.075

Courant Number mean: 0.109908 max: 0.425529
smoothSolver:  Solving for Ux, Initial residual = 0.000478564, Final residual = 5.63974e-06, No Iterations 5
smoothSolver:  Solving for Uy, Initial residual = 0.000875151, Final residual = 4.21302e-06, No Iterations 6
DICPCG:  Solving for p, Initial residual = 0.000592997, Final residual = 2.3522e-05, No Iterations 8
time step continuity errors : sum local = 9.8548e-08, global = -2.51463e-19, cumulative = 4.41775e-19
DICPCG:  Solving for p, Initial residual = 0.00040296, Final residual = 5.72757e-07, No Iterations 25
time step continuity errors : sum local = 2.17288e-09, global = 5.75387e-19, cumulative = 1.01716e-18
ExecutionTime = 0.02 s  ClockTime = 0 s

Time = 0.0775

Courant Number mean: 0.110044 max: 0.425596
smoothSolver:  Solving for Ux, Initial residual = 0.000422379, Final residual = 4.98407e-06, No Iterations 5
smoothSolver:  Solving for Uy, Initial residual = 0.000773125, Final residual = 9.08118e-06, No Iterations 5
DICPCG:  Solving for p, Initial residual = 0.000511485, Final residual = 2.15794e-05, No Iterations 6
time step continuity errors : sum local = 8.34896e-08, global = -2.72142e-20, cumulative = 9.89947e-19
DICPCG:  Solving for p, Initial residual = 0.000344524, Final residual = 6.19499e-07, No Iterations 21
time step continuity errors : sum local = 2.35954e-09, global = -1.67628e-19, cumulative = 8.22319e-19
ExecutionTime = 0.02 s  ClockTime = 0 s

Time = 0.08

Courant Number mean: 0.110164 max: 0.425653
smoothSolver:  Solving for Ux, Initial residual = 0.000374917, Final residual = 4.42546e-06, No Iterations 5
smoothSolver:  Solving for Uy, Initial residual = 0.000679381, Final residual = 7.98816e-06, No Iterations 5
DICPCG:  Solving for p, Initial residual = 0.000452085, Final residual = 2.2517e-05, No Iterations 5
time step continuity errors : sum local = 9.24515e-08, global = -2.13743e-19, cumulative = 6.08576e-19
DICPCG:  Solving for p, Initial residual = 0.000311602, Final residual = 8.15526e-07, No Iterations 21
time step continuity errors : sum local = 3.13253e-09, global = -1.16426e-19, cumulative = 4.9215e-19
ExecutionTime = 0.02 s  ClockTime = 0 s

Time = 0.0825

Courant Number mean: 0.11027 max: 0.425703
smoothSolver:  Solving for Ux, Initial residual = 0.000329819, Final residual = 9.4866e-06, No Iterations 4
smoothSolver:  Solving for Uy, Initial residual = 0.000604193, Final residual = 7.09596e-06, No Iterations 5
DICPCG:  Solving for p, Initial residual = 0.000409642, Final residual = 1.3941e-05, No Iterations 8
time step continuity errors : sum local = 5.47593e-08, global = -4.50028e-19, cumulative = 4.21222e-20
DICPCG:  Solving for p, Initial residual = 0.000273526, Final residual = 8.22986e-07, No Iterations 13
time step continuity errors : sum local = 3.29342e-09, global = -3.95765e-19, cumulative = -3.53642e-19
ExecutionTime = 0.02 s  ClockTime = 0 s

Time = 0.085

Courant Number mean: 0.110363 max: 0.425747
smoothSolver:  Solving for Ux, Initial residual = 0.000292733, Final residual = 8.42185e-06, No Iterations 4
smoothSolver:  Solving for Uy, Initial residual = 0.000533093, Final residual = 6.26355e-06, No Iterations 5
DICPCG:  Solving for p, Initial residual = 0.000345362, Final residual = 1.18253e-05, No Iterations 8
time step continuity errors : sum local = 5.14486e-08, global = -4.1359e-20, cumulative = -3.95001e-19
DICPCG:  Solving for p, Initial residual = 0.000234282, Final residual = 7.99817e-07, No Iterations 23
time step continuity errors : sum local = 3.04725e-09, global = 5.34648e-19, cumulative = 1.39647e-19
ExecutionTime = 0.02 s  ClockTime = 0 s

Time = 0.0875

Courant Number mean: 0.110445 max: 0.425786
smoothSolver:  Solving for Ux, Initial residual = 0.000258324, Final residual = 7.43886e-06, No Iterations 4
smoothSolver:  Solving for Uy, Initial residual = 0.00047309, Final residual = 5.55226e-06, No Iterations 5
DICPCG:  Solving for p, Initial residual = 0.000308679, Final residual = 1.51387e-05, No Iterations 6
time step continuity errors : sum local = 6.16787e-08, global = 1.46783e-19, cumulative = 2.8643e-19
DICPCG:  Solving for p, Initial residual = 0.000207132, Final residual = 7.41786e-07, No Iterations 20
time step continuity errors : sum local = 2.81902e-09, global = 2.85791e-19, cumulative = 5.72221e-19
ExecutionTime = 0.02 s  ClockTime = 0 s

Time = 0.09

Courant Number mean: 0.110518 max: 0.42582
smoothSolver:  Solving for Ux, Initial residual = 0.00023085, Final residual = 6.64073e-06, No Iterations 4
smoothSolver:  Solving for Uy, Initial residual = 0.00041451, Final residual = 4.87239e-06, No Iterations 5
DICPCG:  Solving for p, Initial residual = 0.000274338, Final residual = 1.05397e-05, No Iterations 6
time step continuity errors : sum local = 5.00745e-08, global = -1.08692e-19, cumulative = 4.63529e-19
DICPCG:  Solving for p, Initial residual = 0.000185045, Final residual = 7.5251e-07, No Iterations 20
time step continuity errors : sum local = 2.85956e-09, global = 4.72113e-19, cumulative = 9.35643e-19
ExecutionTime = 0.03 s  ClockTime = 0 s

Time = 0.0925

Courant Number mean: 0.110582 max: 0.425849
smoothSolver:  Solving for Ux, Initial residual = 0.000202467, Final residual = 5.8304e-06, No Iterations 4
smoothSolver:  Solving for Uy, Initial residual = 0.000370749, Final residual = 4.34798e-06, No Iterations 5
DICPCG:  Solving for p, Initial residual = 0.000244209, Final residual = 8.88151e-06, No Iterations 8
time step continuity errors : sum local = 4.47279e-08, global = 1.82807e-20, cumulative = 9.53923e-19
DICPCG:  Solving for p, Initial residual = 0.00016302, Final residual = 5.49574e-07, No Iterations 23
time step continuity errors : sum local = 2.11799e-09, global = 3.06015e-19, cumulative = 1.25994e-18
ExecutionTime = 0.03 s  ClockTime = 0 s

Time = 0.095

Courant Number mean: 0.110639 max: 0.425874
smoothSolver:  Solving for Ux, Initial residual = 0.000180922, Final residual = 5.2004e-06, No Iterations 4
smoothSolver:  Solving for Uy, Initial residual = 0.00032589, Final residual = 9.33588e-06, No Iterations 4
DICPCG:  Solving for p, Initial residual = 0.000212144, Final residual = 9.913e-06, No Iterations 17
time step continuity errors : sum local = 3.76169e-08, global = 3.15652e-19, cumulative = 1.57559e-18
DICPCG:  Solving for p, Initial residual = 0.00014368, Final residual = 6.23157e-07, No Iterations 23
time step continuity errors : sum local = 2.38258e-09, global = -3.51965e-20, cumulative = 1.54039e-18
ExecutionTime = 0.03 s  ClockTime = 0 s

Time = 0.0975

Courant Number mean: 0.110689 max: 0.425897
smoothSolver:  Solving for Ux, Initial residual = 0.000159252, Final residual = 4.58364e-06, No Iterations 4
smoothSolver:  Solving for Uy, Initial residual = 0.000290178, Final residual = 8.31076e-06, No Iterations 4
DICPCG:  Solving for p, Initial residual = 0.000188697, Final residual = 9.13055e-06, No Iterations 6
time step continuity errors : sum local = 3.7611e-08, global = 1.71433e-19, cumulative = 1.71183e-18
DICPCG:  Solving for p, Initial residual = 0.000125936, Final residual = 4.95103e-07, No Iterations 17
time step continuity errors : sum local = 1.90444e-09, global = 3.78022e-20, cumulative = 1.74963e-18
ExecutionTime = 0.03 s  ClockTime = 0 s

Time = 0.1

Courant Number mean: 0.110733 max: 0.425917
smoothSolver:  Solving for Ux, Initial residual = 0.000141123, Final residual = 9.87333e-06, No Iterations 3
smoothSolver:  Solving for Uy, Initial residual = 0.0002571, Final residual = 7.36152e-06, No Iterations 4
DICPCG:  Solving for p, Initial residual = 0.000165559, Final residual = 5.04081e-06, No Iterations 8
time step continuity errors : sum local = 2.57407e-08, global = 4.88822e-19, cumulative = 2.23845e-18
DICPCG:  Solving for p, Initial residual = 0.000113842, Final residual = 9.93707e-07, No Iterations 19
time step continuity errors : sum local = 3.79273e-09, global = -3.16893e-19, cumulative = 1.92156e-18
ExecutionTime = 0.03 s  ClockTime = 0 s

Time = 0.1025

Courant Number mean: 0.110771 max: 0.425934
smoothSolver:  Solving for Ux, Initial residual = 0.000126302, Final residual = 8.82383e-06, No Iterations 3
smoothSolver:  Solving for Uy, Initial residual = 0.000226997, Final residual = 6.49969e-06, No Iterations 4
DICPCG:  Solving for p, Initial residual = 0.000145621, Final residual = 7.11586e-06, No Iterations 8
time step continuity errors : sum local = 3.47322e-08, global = 4.6198e-20, cumulative = 1.96776e-18
DICPCG:  Solving for p, Initial residual = 0.000100391, Final residual = 8.6786e-07, No Iterations 22
time step continuity errors : sum local = 3.30783e-09, global = 3.9928e-19, cumulative = 2.36704e-18
ExecutionTime = 0.03 s  ClockTime = 0 s

Time = 0.105

Courant Number mean: 0.110806 max: 0.425949
smoothSolver:  Solving for Ux, Initial residual = 0.000110663, Final residual = 7.74933e-06, No Iterations 3
smoothSolver:  Solving for Uy, Initial residual = 0.000204226, Final residual = 5.82904e-06, No Iterations 4
DICPCG:  Solving for p, Initial residual = 0.000131202, Final residual = 5.91744e-06, No Iterations 8
time step continuity errors : sum local = 3.40793e-08, global = -6.47269e-20, cumulative = 2.30231e-18
DICPCG:  Solving for p, Initial residual = 9.00614e-05, Final residual = 7.99399e-07, No Iterations 19
time step continuity errors : sum local = 3.06246e-09, global = 2.9427e-19, cumulative = 2.59658e-18
ExecutionTime = 0.03 s  ClockTime = 0 s

Time = 0.1075

Courant Number mean: 0.110836 max: 0.425963
smoothSolver:  Solving for Ux, Initial residual = 0.000100326, Final residual = 6.99831e-06, No Iterations 3
smoothSolver:  Solving for Uy, Initial residual = 0.000177875, Final residual = 5.08943e-06, No Iterations 4
DICPCG:  Solving for p, Initial residual = 0.000118751, Final residual = 4.89863e-06, No Iterations 18
time step continuity errors : sum local = 1.8494e-08, global = -1.62624e-19, cumulative = 2.43396e-18
DICPCG:  Solving for p, Initial residual = 8.24464e-05, Final residual = 4.14207e-07, No Iterations 23
time step continuity errors : sum local = 1.57975e-09, global = -1.60432e-19, cumulative = 2.27352e-18
ExecutionTime = 0.03 s  ClockTime = 0 s

Time = 0.11

Courant Number mean: 0.110863 max: 0.425975
smoothSolver:  Solving for Ux, Initial residual = 8.80643e-05, Final residual = 6.16406e-06, No Iterations 3
smoothSolver:  Solving for Uy, Initial residual = 0.000159103, Final residual = 4.5506e-06, No Iterations 4
DICPCG:  Solving for p, Initial residual = 0.000102118, Final residual = 3.58532e-06, No Iterations 8
time step continuity errors : sum local = 1.46021e-08, global = 3.85383e-19, cumulative = 2.65891e-18
DICPCG:  Solving for p, Initial residual = 6.94813e-05, Final residual = 5.47405e-07, No Iterations 12
time step continuity errors : sum local = 2.4414e-09, global = 1.05714e-19, cumulative = 2.76462e-18
ExecutionTime = 0.03 s  ClockTime = 0 s

Time = 0.1125

Courant Number mean: 0.110887 max: 0.425985
smoothSolver:  Solving for Ux, Initial residual = 7.82488e-05, Final residual = 5.47464e-06, No Iterations 3
smoothSolver:  Solving for Uy, Initial residual = 0.000141248, Final residual = 9.84658e-06, No Iterations 3
DICPCG:  Solving for p, Initial residual = 8.17988e-05, Final residual = 2.77223e-06, No Iterations 6
time step continuity errors : sum local = 1.40125e-08, global = -6.95659e-20, cumulative = 2.69506e-18
DICPCG:  Solving for p, Initial residual = 5.33063e-05, Final residual = 5.39183e-07, No Iterations 17
time step continuity errors : sum local = 2.09009e-09, global = 1.82393e-19, cumulative = 2.87745e-18
ExecutionTime = 0.03 s  ClockTime = 0 s

Time = 0.115

Courant Number mean: 0.110907 max: 0.425994
smoothSolver:  Solving for Ux, Initial residual = 6.91219e-05, Final residual = 4.83823e-06, No Iterations 3
smoothSolver:  Solving for Uy, Initial residual = 0.000126539, Final residual = 8.80995e-06, No Iterations 3
DICPCG:  Solving for p, Initial residual = 7.59846e-05, Final residual = 3.32455e-06, No Iterations 8
time step continuity errors : sum local = 1.57722e-08, global = 1.08361e-20, cumulative = 2.88829e-18
DICPCG:  Solving for p, Initial residual = 4.89472e-05, Final residual = 8.76556e-07, No Iterations 19
time step continuity errors : sum local = 3.49308e-09, global = -2.05141e-19, cumulative = 2.68314e-18
ExecutionTime = 0.03 s  ClockTime = 0 s

Time = 0.1175

Courant Number mean: 0.110926 max: 0.426002
smoothSolver:  Solving for Ux, Initial residual = 6.19911e-05, Final residual = 4.32941e-06, No Iterations 3
smoothSolver:  Solving for Uy, Initial residual = 0.000111683, Final residual = 7.78929e-06, No Iterations 3
DICPCG:  Solving for p, Initial residual = 6.73941e-05, Final residual = 3.09151e-06, No Iterations 9
time step continuity errors : sum local = 1.75103e-08, global = 2.12048e-19, cumulative = 2.89519e-18
DICPCG:  Solving for p, Initial residual = 4.40989e-05, Final residual = 8.64455e-07, No Iterations 19
time step continuity errors : sum local = 3.29122e-09, global = -2.5684e-20, cumulative = 2.86951e-18
ExecutionTime = 0.03 s  ClockTime = 0 s

Time = 0.12

Courant Number mean: 0.110942 max: 0.426009
smoothSolver:  Solving for Ux, Initial residual = 5.45909e-05, Final residual = 9.28077e-06, No Iterations 2
smoothSolver:  Solving for Uy, Initial residual = 0.000100415, Final residual = 6.9839e-06, No Iterations 3
DICPCG:  Solving for p, Initial residual = 7.11509e-05, Final residual = 2.87496e-06, No Iterations 18
time step continuity errors : sum local = 1.09684e-08, global = 6.49957e-19, cumulative = 3.51947e-18
DICPCG:  Solving for p, Initial residual = 5.38179e-05, Final residual = 8.78481e-07, No Iterations 19
time step continuity errors : sum local = 3.48036e-09, global = 2.76899e-19, cumulative = 3.79636e-18
ExecutionTime = 0.03 s  ClockTime = 0 s

Time = 0.1225

Courant Number mean: 0.110957 max: 0.426015
smoothSolver:  Solving for Ux, Initial residual = 4.93589e-05, Final residual = 8.39828e-06, No Iterations 2
smoothSolver:  Solving for Uy, Initial residual = 8.83449e-05, Final residual = 6.15306e-06, No Iterations 3
DICPCG:  Solving for p, Initial residual = 6.15224e-05, Final residual = 2.32184e-06, No Iterations 8
time step continuity errors : sum local = 1.13694e-08, global = 1.00999e-19, cumulative = 3.89736e-18
DICPCG:  Solving for p, Initial residual = 4.64387e-05, Final residual = 5.94469e-07, No Iterations 11
time step continuity errors : sum local = 2.47981e-09, global = 3.88651e-19, cumulative = 4.28601e-18
ExecutionTime = 0.03 s  ClockTime = 0 s

Time = 0.125

Courant Number mean: 0.110969 max: 0.426021
smoothSolver:  Solving for Ux, Initial residual = 4.42251e-05, Final residual = 7.52043e-06, No Iterations 2
smoothSolver:  Solving for Uy, Initial residual = 7.86881e-05, Final residual = 5.47729e-06, No Iterations 3
DICPCG:  Solving for p, Initial residual = 5.43119e-05, Final residual = 2.27754e-06, No Iterations 8
time step continuity errors : sum local = 9.23128e-09, global = 5.83576e-20, cumulative = 4.34437e-18
DICPCG:  Solving for p, Initial residual = 4.12114e-05, Final residual = 6.58154e-07, No Iterations 11
time step continuity errors : sum local = 3.37072e-09, global = -3.17472e-19, cumulative = 4.0269e-18
ExecutionTime = 0.03 s  ClockTime = 0 s

Time = 0.1275

Courant Number mean: 0.110981 max: 0.426026
smoothSolver:  Solving for Ux, Initial residual = 3.94871e-05, Final residual = 6.71852e-06, No Iterations 2
smoothSolver:  Solving for Uy, Initial residual = 7.02455e-05, Final residual = 4.88669e-06, No Iterations 3
DICPCG:  Solving for p, Initial residual = 4.90313e-05, Final residual = 1.71877e-06, No Iterations 8
time step continuity errors : sum local = 6.50576e-09, global = 9.25202e-20, cumulative = 4.11942e-18
DICPCG:  Solving for p, Initial residual = 3.69061e-05, Final residual = 9.15124e-07, No Iterations 11
time step continuity errors : sum local = 4.77226e-09, global = -3.96468e-19, cumulative = 3.72295e-18
ExecutionTime = 0.03 s  ClockTime = 0 s

Time = 0.13

Courant Number mean: 0.110991 max: 0.42603
smoothSolver:  Solving for Ux, Initial residual = 3.52824e-05, Final residual = 6.00384e-06, No Iterations 2
smoothSolver:  Solving for Uy, Initial residual = 6.26366e-05, Final residual = 4.35697e-06, No Iterations 3
DICPCG:  Solving for p, Initial residual = 4.32553e-05, Final residual = 1.61929e-06, No Iterations 8
time step continuity errors : sum local = 6.7706e-09, global = -1.42068e-19, cumulative = 3.58088e-18
DICPCG:  Solving for p, Initial residual = 3.26547e-05, Final residual = 7.74625e-07, No Iterations 18
time step continuity errors : sum local = 2.93625e-09, global = 3.87451e-19, cumulative = 3.96834e-18
ExecutionTime = 0.03 s  ClockTime = 0 s

Time = 0.1325

Courant Number mean: 0.111 max: 0.426034
smoothSolver:  Solving for Ux, Initial residual = 3.12996e-05, Final residual = 5.33299e-06, No Iterations 2
smoothSolver:  Solving for Uy, Initial residual = 5.62816e-05, Final residual = 9.52001e-06, No Iterations 2
DICPCG:  Solving for p, Initial residual = 2.74092e-05, Final residual = 1.11726e-06, No Iterations 8
time step continuity errors : sum local = 5.11993e-09, global = 2.66187e-19, cumulative = 4.23452e-18
DICPCG:  Solving for p, Initial residual = 1.65395e-05, Final residual = 5.82579e-07, No Iterations 8
time step continuity errors : sum local = 2.90339e-09, global = -1.28627e-20, cumulative = 4.22166e-18
ExecutionTime = 0.03 s  ClockTime = 0 s

Time = 0.135

Courant Number mean: 0.111007 max: 0.426037
smoothSolver:  Solving for Ux, Initial residual = 2.81248e-05, Final residual = 4.78252e-06, No Iterations 2
smoothSolver:  Solving for Uy, Initial residual = 5.03305e-05, Final residual = 8.53091e-06, No Iterations 2
DICPCG:  Solving for p, Initial residual = 2.53332e-05, Final residual = 1.12715e-06, No Iterations 6
time step continuity errors : sum local = 4.53193e-09, global = -8.37272e-19, cumulative = 3.38439e-18
DICPCG:  Solving for p, Initial residual = 1.53798e-05, Final residual = 6.97377e-07, No Iterations 5
time step continuity errors : sum local = 2.74239e-09, global = 8.67299e-20, cumulative = 3.47112e-18
ExecutionTime = 0.03 s  ClockTime = 0 s

Time = 0.1375

Courant Number mean: 0.111014 max: 0.42604
smoothSolver:  Solving for Ux, Initial residual = 2.50486e-05, Final residual = 4.25948e-06, No Iterations 2
smoothSolver:  Solving for Uy, Initial residual = 4.53605e-05, Final residual = 7.68781e-06, No Iterations 2
DICPCG:  Solving for p, Initial residual = 2.30657e-05, Final residual = 4.75507e-07, No Iterations 6
time step continuity errors : sum local = 2.26029e-09, global = -1.36692e-19, cumulative = 3.33443e-18
DICPCG:  Solving for p, Initial residual = 1.40509e-05, Final residual = 5.78948e-07, No Iterations 5
time step continuity errors : sum local = 2.50605e-09, global = -1.838e-19, cumulative = 3.15063e-18
ExecutionTime = 0.03 s  ClockTime = 0 s

Time = 0.14

Courant Number mean: 0.111021 max: 0.426042
smoothSolver:  Solving for Ux, Initial residual = 2.25369e-05, Final residual = 9.2991e-06, No Iterations 1
smoothSolver:  Solving for Uy, Initial residual = 4.04866e-05, Final residual = 6.86617e-06, No Iterations 2
DICPCG:  Solving for p, Initial residual = 4.53149e-05, Final residual = 2.05962e-06, No Iterations 17
time step continuity errors : sum local = 7.85325e-09, global = 4.43989e-19, cumulative = 3.59461e-18
DICPCG:  Solving for p, Initial residual = 3.98213e-05, Final residual = 5.89865e-07, No Iterations 18
time step continuity errors : sum local = 2.25206e-09, global = 5.10991e-19, cumulative = 4.10561e-18
ExecutionTime = 0.04 s  ClockTime = 0 s

Time = 0.1425

Courant Number mean: 0.111026 max: 0.426045
smoothSolver:  Solving for Ux, Initial residual = 2.06012e-05, Final residual = 8.51729e-06, No Iterations 1
smoothSolver:  Solving for Uy, Initial residual = 3.6321e-05, Final residual = 6.13827e-06, No Iterations 2
DICPCG:  Solving for p, Initial residual = 3.92246e-05, Final residual = 1.42009e-06, No Iterations 18
time step continuity errors : sum local = 5.52988e-09, global = 1.58819e-20, cumulative = 4.12149e-18
DICPCG:  Solving for p, Initial residual = 3.45938e-05, Final residual = 5.04412e-07, No Iterations 21
time step continuity errors : sum local = 1.92538e-09, global = 1.86819e-19, cumulative = 4.30831e-18
ExecutionTime = 0.04 s  ClockTime = 0 s

Time = 0.145

Courant Number mean: 0.11103 max: 0.426047
smoothSolver:  Solving for Ux, Initial residual = 1.87261e-05, Final residual = 7.74824e-06, No Iterations 1
smoothSolver:  Solving for Uy, Initial residual = 3.27142e-05, Final residual = 5.52051e-06, No Iterations 2
DICPCG:  Solving for p, Initial residual = 3.54493e-05, Final residual = 1.14921e-06, No Iterations 18
time step continuity errors : sum local = 4.50424e-09, global = 2.67179e-20, cumulative = 4.33502e-18
DICPCG:  Solving for p, Initial residual = 3.11545e-05, Final residual = 9.70803e-07, No Iterations 20
time step continuity errors : sum local = 3.72668e-09, global = 6.27541e-19, cumulative = 4.96256e-18
ExecutionTime = 0.04 s  ClockTime = 0 s

Time = 0.1475

Courant Number mean: 0.111035 max: 0.426049
smoothSolver:  Solving for Ux, Initial residual = 1.69856e-05, Final residual = 7.03161e-06, No Iterations 1
smoothSolver:  Solving for Uy, Initial residual = 2.95205e-05, Final residual = 4.97744e-06, No Iterations 2
DICPCG:  Solving for p, Initial residual = 3.19429e-05, Final residual = 1.15804e-06, No Iterations 18
time step continuity errors : sum local = 4.56197e-09, global = 3.69915e-19, cumulative = 5.33248e-18
DICPCG:  Solving for p, Initial residual = 2.80743e-05, Final residual = 8.52092e-07, No Iterations 20
time step continuity errors : sum local = 3.26895e-09, global = 1.54228e-19, cumulative = 5.48671e-18
ExecutionTime = 0.04 s  ClockTime = 0 s

Time = 0.15

Courant Number mean: 0.111038 max: 0.42605
smoothSolver:  Solving for Ux, Initial residual = 1.53971e-05, Final residual = 6.3755e-06, No Iterations 1
smoothSolver:  Solving for Uy, Initial residual = 2.66491e-05, Final residual = 4.49148e-06, No Iterations 2
DICPCG:  Solving for p, Initial residual = 2.8812e-05, Final residual = 1.01177e-06, No Iterations 18
time step continuity errors : sum local = 3.98311e-09, global = 8.21556e-19, cumulative = 6.30826e-18
DICPCG:  Solving for p, Initial residual = 2.53282e-05, Final residual = 8.71909e-07, No Iterations 18
time step continuity errors : sum local = 3.45067e-09, global = -8.08569e-20, cumulative = 6.22741e-18
ExecutionTime = 0.04 s  ClockTime = 0 s

Time = 0.1525

Courant Number mean: 0.111042 max: 0.426052
smoothSolver:  Solving for Ux, Initial residual = 1.39642e-05, Final residual = 5.78273e-06, No Iterations 1
smoothSolver:  Solving for Uy, Initial residual = 2.40309e-05, Final residual = 9.85506e-06, No Iterations 1
DICPCG:  Solving for p, Initial residual = 8.33581e-06, Final residual = 6.87101e-07, No Iterations 8
time step continuity errors : sum local = 3.0559e-09, global = 1.47693e-19, cumulative = 6.3751e-18
DICPCG:  Solving for p, Initial residual = 4.1881e-06, Final residual = 6.92616e-07, No Iterations 7
time step continuity errors : sum local = 2.93526e-09, global = 1.83841e-19, cumulative = 6.55894e-18
ExecutionTime = 0.04 s  ClockTime = 0 s

Time = 0.155

Courant Number mean: 0.111045 max: 0.426053
smoothSolver:  Solving for Ux, Initial residual = 1.26804e-05, Final residual = 5.23668e-06, No Iterations 1
smoothSolver:  Solving for Uy, Initial residual = 2.21362e-05, Final residual = 9.09839e-06, No Iterations 1
DICPCG:  Solving for p, Initial residual = 7.45707e-06, Final residual = 9.48563e-07, No Iterations 6
time step continuity errors : sum local = 4.36362e-09, global = -3.226e-21, cumulative = 6.55571e-18
DICPCG:  Solving for p, Initial residual = 3.94234e-06, Final residual = 8.16974e-07, No Iterations 4
time step continuity errors : sum local = 3.70729e-09, global = -9.25615e-20, cumulative = 6.46315e-18
ExecutionTime = 0.04 s  ClockTime = 0 s

Time = 0.1575

Courant Number mean: 0.111047 max: 0.426054
smoothSolver:  Solving for Ux, Initial residual = 1.14292e-05, Final residual = 4.7184e-06, No Iterations 1
smoothSolver:  Solving for Uy, Initial residual = 2.04589e-05, Final residual = 8.41268e-06, No Iterations 1
DICPCG:  Solving for p, Initial residual = 7.90671e-06, Final residual = 4.32304e-07, No Iterations 8
time step continuity errors : sum local = 2.3291e-09, global = -3.99859e-19, cumulative = 6.06329e-18
DICPCG:  Solving for p, Initial residual = 4.00365e-06, Final residual = 8.9814e-07, No Iterations 4
time step continuity errors : sum local = 4.04464e-09, global = 2.7359e-19, cumulative = 6.33688e-18
ExecutionTime = 0.04 s  ClockTime = 0 s

Time = 0.16

Courant Number mean: 0.11105 max: 0.426055
smoothSolver:  Solving for Ux, Initial residual = 1.04567e-05, Final residual = 4.31252e-06, No Iterations 1
smoothSolver:  Solving for Uy, Initial residual = 1.86194e-05, Final residual = 7.66125e-06, No Iterations 1
DICPCG:  Solving for p, Initial residual = 6.60673e-06, Final residual = 4.19985e-07, No Iterations 8
time step continuity errors : sum local = 2.43248e-09, global = -5.41472e-19, cumulative = 5.79541e-18
DICPCG:  Solving for p, Initial residual = 3.3166e-06, Final residual = 5.07065e-07, No Iterations 7
time step continuity errors : sum local = 2.5782e-09, global = -2.01377e-19, cumulative = 5.59403e-18
ExecutionTime = 0.04 s  ClockTime = 0 s

Time = 0.1625

Courant Number mean: 0.111052 max: 0.426055
smoothSolver:  Solving for Ux, Initial residual = 9.548e-06, Final residual = 9.548e-06, No Iterations 0
smoothSolver:  Solving for Uy, Initial residual = 1.70208e-05, Final residual = 7.00615e-06, No Iterations 1
DICPCG:  Solving for p, Initial residual = 4.30078e-05, Final residual = 1.45921e-06, No Iterations 16
time step continuity errors : sum local = 5.58856e-09, global = -6.80356e-20, cumulative = 5.526e-18
DICPCG:  Solving for p, Initial residual = 4.14158e-05, Final residual = 9.95258e-07, No Iterations 17
time step continuity errors : sum local = 3.77943e-09, global = -7.70519e-20, cumulative = 5.44895e-18
ExecutionTime = 0.04 s  ClockTime = 0 s

Time = 0.165

Courant Number mean: 0.111053 max: 0.426056
smoothSolver:  Solving for Ux, Initial residual = 9.14362e-06, Final residual = 9.14362e-06, No Iterations 0
smoothSolver:  Solving for Uy, Initial residual = 1.55582e-05, Final residual = 6.35847e-06, No Iterations 1
DICPCG:  Solving for p, Initial residual = 3.83314e-05, Final residual = 1.47222e-06, No Iterations 16
time step continuity errors : sum local = 5.61074e-09, global = 1.83675e-19, cumulative = 5.63262e-18
DICPCG:  Solving for p, Initial residual = 3.79465e-05, Final residual = 8.71395e-07, No Iterations 17
time step continuity errors : sum local = 3.30756e-09, global = -4.51847e-19, cumulative = 5.18078e-18
ExecutionTime = 0.04 s  ClockTime = 0 s

Time = 0.1675

Courant Number mean: 0.111055 max: 0.426057
smoothSolver:  Solving for Ux, Initial residual = 8.64467e-06, Final residual = 8.64467e-06, No Iterations 0
smoothSolver:  Solving for Uy, Initial residual = 1.43354e-05, Final residual = 5.84327e-06, No Iterations 1
DICPCG:  Solving for p, Initial residual = 3.55379e-05, Final residual = 1.47938e-06, No Iterations 16
time step continuity errors : sum local = 5.70298e-09, global = 7.7755e-21, cumulative = 5.18855e-18
DICPCG:  Solving for p, Initial residual = 3.53168e-05, Final residual = 9.77817e-07, No Iterations 18
time step continuity errors : sum local = 3.77776e-09, global = -1.36071e-20, cumulative = 5.17494e-18
ExecutionTime = 0.04 s  ClockTime = 0 s

Time = 0.17

Courant Number mean: 0.111056 max: 0.426058
smoothSolver:  Solving for Ux, Initial residual = 8.15096e-06, Final residual = 8.15096e-06, No Iterations 0
smoothSolver:  Solving for Uy, Initial residual = 1.32674e-05, Final residual = 5.39704e-06, No Iterations 1
DICPCG:  Solving for p, Initial residual = 3.31885e-05, Final residual = 1.65783e-06, No Iterations 16
time step continuity errors : sum local = 6.50851e-09, global = -7.35364e-20, cumulative = 5.10141e-18
DICPCG:  Solving for p, Initial residual = 3.29518e-05, Final residual = 7.56747e-07, No Iterations 20
time step continuity errors : sum local = 2.90481e-09, global = -2.46583e-19, cumulative = 4.85482e-18
ExecutionTime = 0.04 s  ClockTime = 0 s

Time = 0.1725

Courant Number mean: 0.111057 max: 0.426058
smoothSolver:  Solving for Ux, Initial residual = 7.65299e-06, Final residual = 7.65299e-06, No Iterations 0
smoothSolver:  Solving for Uy, Initial residual = 1.2308e-05, Final residual = 4.9999e-06, No Iterations 1
DICPCG:  Solving for p, Initial residual = 3.07878e-05, Final residual = 1.42263e-06, No Iterations 16
time step continuity errors : sum local = 5.49847e-09, global = 1.04994e-18, cumulative = 5.90476e-18
DICPCG:  Solving for p, Initial residual = 3.07496e-05, Final residual = 7.05398e-07, No Iterations 18
time step continuity errors : sum local = 2.72677e-09, global = 9.49727e-19, cumulative = 6.85449e-18
ExecutionTime = 0.04 s  ClockTime = 0 s

Time = 0.175

Courant Number mean: 0.111058 max: 0.426059
smoothSolver:  Solving for Ux, Initial residual = 7.18637e-06, Final residual = 7.18637e-06, No Iterations 0
smoothSolver:  Solving for Uy, Initial residual = 1.14541e-05, Final residual = 4.64967e-06, No Iterations 1
DICPCG:  Solving for p, Initial residual = 2.88368e-05, Final residual = 9.1063e-07, No Iterations 18
time step continuity errors : sum local = 3.52946e-09, global = -1.0312e-18, cumulative = 5.82329e-18
DICPCG:  Solving for p, Initial residual = 2.88486e-05, Final residual = 9.13213e-07, No Iterations 18
time step continuity errors : sum local = 3.48773e-09, global = -1.74204e-19, cumulative = 5.64908e-18
ExecutionTime = 0.04 s  ClockTime = 0 s

Time = 0.1775

Courant Number mean: 0.111059 max: 0.426059
smoothSolver:  Solving for Ux, Initial residual = 6.74733e-06, Final residual = 6.74733e-06, No Iterations 0
smoothSolver:  Solving for Uy, Initial residual = 1.06535e-05, Final residual = 4.32137e-06, No Iterations 1
DICPCG:  Solving for p, Initial residual = 2.69475e-05, Final residual = 1.00521e-06, No Iterations 16
time step continuity errors : sum local = 3.92949e-09, global = 1.12786e-19, cumulative = 5.76187e-18
DICPCG:  Solving for p, Initial residual = 2.68695e-05, Final residual = 8.14546e-07, No Iterations 18
time step continuity errors : sum local = 3.14533e-09, global = -7.26016e-19, cumulative = 5.03585e-18
ExecutionTime = 0.04 s  ClockTime = 0 s

Time = 0.18

Courant Number mean: 0.11106 max: 0.42606
smoothSolver:  Solving for Ux, Initial residual = 6.32846e-06, Final residual = 6.32846e-06, No Iterations 0
smoothSolver:  Solving for Uy, Initial residual = 9.90799e-06, Final residual = 9.90799e-06, No Iterations 0
DICPCG:  Solving for p, Initial residual = 1.56693e-06, Final residual = 7.94478e-07, No Iterations 4
time step continuity errors : sum local = 3.14828e-09, global = -6.99464e-19, cumulative = 4.33639e-18
DICPCG:  Solving for p, Initial residual = 1.24268e-06, Final residual = 9.74264e-07, No Iterations 1
time step continuity errors : sum local = 3.88239e-09, global = -3.25371e-19, cumulative = 4.01102e-18
ExecutionTime = 0.04 s  ClockTime = 0 s

Time = 0.1825

Courant Number mean: 0.111061 max: 0.42606
smoothSolver:  Solving for Ux, Initial residual = 5.92333e-06, Final residual = 5.92333e-06, No Iterations 0
smoothSolver:  Solving for Uy, Initial residual = 9.66308e-06, Final residual = 9.66308e-06, No Iterations 0
DICPCG:  Solving for p, Initial residual = 1.31232e-06, Final residual = 4.48763e-07, No Iterations 2
time step continuity errors : sum local = 1.90728e-09, global = -3.55315e-19, cumulative = 3.6557e-18
DICPCG:  Solving for p, Initial residual = 8.26148e-07, Final residual = 8.26148e-07, No Iterations 0
time step continuity errors : sum local = 3.35967e-09, global = -1.28213e-19, cumulative = 3.52749e-18
ExecutionTime = 0.04 s  ClockTime = 0 s

Time = 0.185

Courant Number mean: 0.111062 max: 0.42606
smoothSolver:  Solving for Ux, Initial residual = 5.67995e-06, Final residual = 5.67995e-06, No Iterations 0
smoothSolver:  Solving for Uy, Initial residual = 9.23079e-06, Final residual = 9.23079e-06, No Iterations 0
DICPCG:  Solving for p, Initial residual = 1.74144e-06, Final residual = 5.30485e-07, No Iterations 3
time step continuity errors : sum local = 2.41612e-09, global = -9.71524e-20, cumulative = 3.43034e-18
DICPCG:  Solving for p, Initial residual = 8.91012e-07, Final residual = 8.91012e-07, No Iterations 0
time step continuity errors : sum local = 3.78575e-09, global = 1.81483e-19, cumulative = 3.61182e-18
ExecutionTime = 0.04 s  ClockTime = 0 s

Time = 0.1875

Courant Number mean: 0.111062 max: 0.42606
smoothSolver:  Solving for Ux, Initial residual = 5.32918e-06, Final residual = 5.32918e-06, No Iterations 0
smoothSolver:  Solving for Uy, Initial residual = 9.0016e-06, Final residual = 9.0016e-06, No Iterations 0
DICPCG:  Solving for p, Initial residual = 1.62394e-06, Final residual = 9.46377e-07, No Iterations 1
time step continuity errors : sum local = 4.02019e-09, global = 3.28515e-19, cumulative = 3.94034e-18
DICPCG:  Solving for p, Initial residual = 1.12175e-06, Final residual = 8.18272e-07, No Iterations 1
time step continuity errors : sum local = 3.57926e-09, global = 2.93236e-20, cumulative = 3.96966e-18
ExecutionTime = 0.04 s  ClockTime = 0 s

Time = 0.19

Courant Number mean: 0.111063 max: 0.42606
smoothSolver:  Solving for Ux, Initial residual = 5.07529e-06, Final residual = 5.07529e-06, No Iterations 0
smoothSolver:  Solving for Uy, Initial residual = 8.57871e-06, Final residual = 8.57871e-06, No Iterations 0
DICPCG:  Solving for p, Initial residual = 1.48947e-06, Final residual = 6.65688e-07, No Iterations 1
time step continuity errors : sum local = 3.04069e-09, global = -9.43399e-20, cumulative = 3.87532e-18
DICPCG:  Solving for p, Initial residual = 1.01919e-06, Final residual = 9.90854e-07, No Iterations 1
time step continuity errors : sum local = 4.3275e-09, global = -1.94222e-19, cumulative = 3.6811e-18
ExecutionTime = 0.04 s  ClockTime = 0 s

Time = 0.1925

Courant Number mean: 0.111063 max: 0.42606
smoothSolver:  Solving for Ux, Initial residual = 4.80482e-06, Final residual = 4.80482e-06, No Iterations 0
smoothSolver:  Solving for Uy, Initial residual = 8.1863e-06, Final residual = 8.1863e-06, No Iterations 0
DICPCG:  Solving for p, Initial residual = 1.47716e-06, Final residual = 8.055e-07, No Iterations 1
time step continuity errors : sum local = 3.64402e-09, global = -1.00697e-18, cumulative = 2.67413e-18
DICPCG:  Solving for p, Initial residual = 1.15364e-06, Final residual = 6.04826e-07, No Iterations 2
time step continuity errors : sum local = 2.97886e-09, global = 4.54908e-19, cumulative = 3.12904e-18
ExecutionTime = 0.05 s  ClockTime = 0 s

Time = 0.195

Courant Number mean: 0.111064 max: 0.426061
smoothSolver:  Solving for Ux, Initial residual = 4.54696e-06, Final residual = 4.54696e-06, No Iterations 0
smoothSolver:  Solving for Uy, Initial residual = 7.88633e-06, Final residual = 7.88633e-06, No Iterations 0
DICPCG:  Solving for p, Initial residual = 7.90197e-07, Final residual = 7.90197e-07, No Iterations 0
time step continuity errors : sum local = 3.68309e-09, global = -3.14618e-19, cumulative = 2.81442e-18
DICPCG:  Solving for p, Initial residual = 1.11569e-06, Final residual = 4.06685e-07, No Iterations 1
time step continuity errors : sum local = 2.25727e-09, global = 1.46907e-19, cumulative = 2.96133e-18
ExecutionTime = 0.05 s  ClockTime = 0 s

Time = 0.1975

Courant Number mean: 0.111064 max: 0.426061
smoothSolver:  Solving for Ux, Initial residual = 4.36598e-06, Final residual = 4.36598e-06, No Iterations 0
smoothSolver:  Solving for Uy, Initial residual = 7.56048e-06, Final residual = 7.56048e-06, No Iterations 0
DICPCG:  Solving for p, Initial residual = 8.74276e-07, Final residual = 8.74276e-07, No Iterations 0
time step continuity errors : sum local = 4.04119e-09, global = -5.55865e-20, cumulative = 2.90574e-18
DICPCG:  Solving for p, Initial residual = 1.52155e-06, Final residual = 5.21455e-07, No Iterations 2
time step continuity errors : sum local = 2.72945e-09, global = 1.37932e-19, cumulative = 3.04367e-18
ExecutionTime = 0.05 s  ClockTime = 0 s

Time = 0.2

Courant Number mean: 0.111065 max: 0.426061
smoothSolver:  Solving for Ux, Initial residual = 4.11924e-06, Final residual = 4.11924e-06, No Iterations 0
smoothSolver:  Solving for Uy, Initial residual = 7.16127e-06, Final residual = 7.16127e-06, No Iterations 0
DICPCG:  Solving for p, Initial residual = 9.93894e-07, Final residual = 9.93894e-07, No Iterations 0
time step continuity errors : sum local = 4.52425e-09, global = 6.77875e-20, cumulative = 3.11146e-18
DICPCG:  Solving for p, Initial residual = 1.45528e-06, Final residual = 9.00771e-07, No Iterations 1
time step continuity errors : sum local = 4.17506e-09, global = 6.25555e-19, cumulative = 3.73701e-18
ExecutionTime = 0.05 s  ClockTime = 0 s

Time = 0.2025

Courant Number mean: 0.111065 max: 0.426061
smoothSolver:  Solving for Ux, Initial residual = 3.95764e-06, Final residual = 3.95764e-06, No Iterations 0
smoothSolver:  Solving for Uy, Initial residual = 6.87158e-06, Final residual = 6.87158e-06, No Iterations 0
DICPCG:  Solving for p, Initial residual = 1.24522e-06, Final residual = 6.16569e-07, No Iterations 2
time step continuity errors : sum local = 3.14872e-09, global = -8.61509e-20, cumulative = 3.65086e-18
DICPCG:  Solving for p, Initial residual = 7.7537e-07, Final residual = 7.7537e-07, No Iterations 0
time step continuity errors : sum local = 3.75201e-09, global = -3.75499e-19, cumulative = 3.27536e-18
ExecutionTime = 0.05 s  ClockTime = 0 s

Time = 0.205

Courant Number mean: 0.111066 max: 0.426061
smoothSolver:  Solving for Ux, Initial residual = 3.76638e-06, Final residual = 3.76638e-06, No Iterations 0
smoothSolver:  Solving for Uy, Initial residual = 6.595e-06, Final residual = 6.595e-06, No Iterations 0
DICPCG:  Solving for p, Initial residual = 1.29679e-06, Final residual = 6.18287e-07, No Iterations 1
time step continuity errors : sum local = 3.172e-09, global = -1.90748e-19, cumulative = 3.08462e-18
DICPCG:  Solving for p, Initial residual = 8.20928e-07, Final residual = 8.20928e-07, No Iterations 0
time step continuity errors : sum local = 3.94514e-09, global = 3.19416e-19, cumulative = 3.40403e-18
ExecutionTime = 0.05 s  ClockTime = 0 s

Time = 0.2075

Courant Number mean: 0.111066 max: 0.426061
smoothSolver:  Solving for Ux, Initial residual = 3.60944e-06, Final residual = 3.60944e-06, No Iterations 0
smoothSolver:  Solving for Uy, Initial residual = 6.32253e-06, Final residual = 6.32253e-06, No Iterations 0
DICPCG:  Solving for p, Initial residual = 1.51712e-06, Final residual = 9.67863e-07, No Iterations 1
time step continuity errors : sum local = 4.51895e-09, global = 1.03646e-19, cumulative = 3.50768e-18
DICPCG:  Solving for p, Initial residual = 1.31824e-06, Final residual = 5.30397e-07, No Iterations 1
time step continuity errors : sum local = 2.85825e-09, global = -1.33755e-19, cumulative = 3.37392e-18
ExecutionTime = 0.05 s  ClockTime = 0 s

Time = 0.21

Courant Number mean: 0.111066 max: 0.426062
smoothSolver:  Solving for Ux, Initial residual = 3.41206e-06, Final residual = 3.41206e-06, No Iterations 0
smoothSolver:  Solving for Uy, Initial residual = 6.00115e-06, Final residual = 6.00115e-06, No Iterations 0
DICPCG:  Solving for p, Initial residual = 8.87429e-07, Final residual = 8.87429e-07, No Iterations 0
time step continuity errors : sum local = 4.21693e-09, global = -5.66991e-19, cumulative = 2.80693e-18
DICPCG:  Solving for p, Initial residual = 1.37195e-06, Final residual = 7.14802e-07, No Iterations 2
time step continuity errors : sum local = 3.57682e-09, global = -5.37047e-19, cumulative = 2.26989e-18
ExecutionTime = 0.05 s  ClockTime = 0 s

Time = 0.2125

Courant Number mean: 0.111067 max: 0.426062
smoothSolver:  Solving for Ux, Initial residual = 3.22174e-06, Final residual = 3.22174e-06, No Iterations 0
smoothSolver:  Solving for Uy, Initial residual = 5.69339e-06, Final residual = 5.69339e-06, No Iterations 0
DICPCG:  Solving for p, Initial residual = 1.03024e-06, Final residual = 6.26689e-07, No Iterations 1
time step continuity errors : sum local = 3.25561e-09, global = -3.20202e-19, cumulative = 1.94968e-18
DICPCG:  Solving for p, Initial residual = 7.87237e-07, Final residual = 7.87237e-07, No Iterations 0
time step continuity errors : sum local = 3.87165e-09, global = 1.1837e-19, cumulative = 2.06805e-18
ExecutionTime = 0.05 s  ClockTime = 0 s

Time = 0.215

Courant Number mean: 0.111067 max: 0.426062
smoothSolver:  Solving for Ux, Initial residual = 3.11216e-06, Final residual = 3.11216e-06, No Iterations 0
smoothSolver:  Solving for Uy, Initial residual = 5.50356e-06, Final residual = 5.50356e-06, No Iterations 0
DICPCG:  Solving for p, Initial residual = 1.41486e-06, Final residual = 5.89588e-07, No Iterations 1
time step continuity errors : sum local = 3.13349e-09, global = -9.19411e-20, cumulative = 1.97611e-18
DICPCG:  Solving for p, Initial residual = 9.06019e-07, Final residual = 9.06019e-07, No Iterations 0
time step continuity errors : sum local = 4.33928e-09, global = -1.08154e-19, cumulative = 1.86796e-18
ExecutionTime = 0.05 s  ClockTime = 0 s

Time = 0.2175

Courant Number mean: 0.111067 max: 0.426062
smoothSolver:  Solving for Ux, Initial residual = 2.96799e-06, Final residual = 2.96799e-06, No Iterations 0
smoothSolver:  Solving for Uy, Initial residual = 5.2534e-06, Final residual = 5.2534e-06, No Iterations 0
DICPCG:  Solving for p, Initial residual = 1.52553e-06, Final residual = 5.17323e-07, No Iterations 2
time step continuity errors : sum local = 2.88753e-09, global = 4.3427e-21, cumulative = 1.8723e-18
DICPCG:  Solving for p, Initial residual = 9.34958e-07, Final residual = 9.34958e-07, No Iterations 0
time step continuity errors : sum local = 4.47572e-09, global = -1.98275e-19, cumulative = 1.67403e-18
ExecutionTime = 0.05 s  ClockTime = 0 s

Time = 0.22

Courant Number mean: 0.111068 max: 0.426062
smoothSolver:  Solving for Ux, Initial residual = 2.80026e-06, Final residual = 2.80026e-06, No Iterations 0
smoothSolver:  Solving for Uy, Initial residual = 4.97801e-06, Final residual = 4.97801e-06, No Iterations 0
DICPCG:  Solving for p, Initial residual = 1.56114e-06, Final residual = 6.11496e-07, No Iterations 1
time step continuity errors : sum local = 3.25308e-09, global = 2.63292e-19, cumulative = 1.93732e-18
DICPCG:  Solving for p, Initial residual = 6.8913e-07, Final residual = 6.8913e-07, No Iterations 0
time step continuity errors : sum local = 3.5501e-09, global = -1.89714e-19, cumulative = 1.7476e-18
ExecutionTime = 0.05 s  ClockTime = 0 s

Time = 0.2225

Courant Number mean: 0.111068 max: 0.426062
smoothSolver:  Solving for Ux, Initial residual = 2.68975e-06, Final residual = 2.68975e-06, No Iterations 0
smoothSolver:  Solving for Uy, Initial residual = 4.78256e-06, Final residual = 4.78256e-06, No Iterations 0
DICPCG:  Solving for p, Initial residual = 1.08626e-06, Final residual = 6.07869e-07, No Iterations 1
time step continuity errors : sum local = 3.25042e-09, global = -3.92414e-19, cumulative = 1.35519e-18
DICPCG:  Solving for p, Initial residual = 1.06218e-06, Final residual = 7.08228e-07, No Iterations 1
time step continuity errors : sum local = 3.63605e-09, global = -1.65684e-19, cumulative = 1.1895e-18
ExecutionTime = 0.05 s  ClockTime = 0 s

Time = 0.225

Courant Number mean: 0.111068 max: 0.426062
smoothSolver:  Solving for Ux, Initial residual = 2.55783e-06, Final residual = 2.55783e-06, No Iterations 0
smoothSolver:  Solving for Uy, Initial residual = 4.55787e-06, Final residual = 4.55787e-06, No Iterations 0
DICPCG:  Solving for p, Initial residual = 9.90721e-07, Final residual = 9.90721e-07, No Iterations 0
time step continuity errors : sum local = 4.71104e-09, global = 6.68362e-20, cumulative = 1.25634e-18
DICPCG:  Solving for p, Initial residual = 1.32645e-06, Final residual = 5.44183e-07, No Iterations 2
time step continuity errors : sum local = 3.03609e-09, global = 2.54358e-20, cumulative = 1.28178e-18
ExecutionTime = 0.05 s  ClockTime = 0 s

Time = 0.2275

Courant Number mean: 0.111068 max: 0.426062
smoothSolver:  Solving for Ux, Initial residual = 2.40812e-06, Final residual = 2.40812e-06, No Iterations 0
smoothSolver:  Solving for Uy, Initial residual = 4.3149e-06, Final residual = 4.3149e-06, No Iterations 0
DICPCG:  Solving for p, Initial residual = 9.49333e-07, Final residual = 9.49333e-07, No Iterations 0
time step continuity errors : sum local = 4.57553e-09, global = 2.89513e-20, cumulative = 1.31073e-18
DICPCG:  Solving for p, Initial residual = 1.29516e-06, Final residual = 7.191e-07, No Iterations 1
time step continuity errors : sum local = 3.7062e-09, global = -3.64663e-19, cumulative = 9.46065e-19
ExecutionTime = 0.05 s  ClockTime = 0 s

Time = 0.23

Courant Number mean: 0.111069 max: 0.426063
smoothSolver:  Solving for Ux, Initial residual = 2.32081e-06, Final residual = 2.32081e-06, No Iterations 0
smoothSolver:  Solving for Uy, Initial residual = 4.15698e-06, Final residual = 4.15698e-06, No Iterations 0
DICPCG:  Solving for p, Initial residual = 1.03598e-06, Final residual = 3.78581e-07, No Iterations 1
time step continuity errors : sum local = 2.42125e-09, global = 1.75445e-19, cumulative = 1.12151e-18
DICPCG:  Solving for p, Initial residual = 6.45382e-07, Final residual = 6.45382e-07, No Iterations 0
time step continuity errors : sum local = 3.43483e-09, global = -2.50222e-19, cumulative = 8.71288e-19
ExecutionTime = 0.05 s  ClockTime = 0 s

Time = 0.2325

Courant Number mean: 0.111069 max: 0.426063
smoothSolver:  Solving for Ux, Initial residual = 2.23795e-06, Final residual = 2.23795e-06, No Iterations 0
smoothSolver:  Solving for Uy, Initial residual = 4.00589e-06, Final residual = 4.00589e-06, No Iterations 0
DICPCG:  Solving for p, Initial residual = 1.2197e-06, Final residual = 5.04363e-07, No Iterations 2
time step continuity errors : sum local = 2.90235e-09, global = 3.57177e-19, cumulative = 1.22846e-18
DICPCG:  Solving for p, Initial residual = 6.63611e-07, Final residual = 6.63611e-07, No Iterations 0
time step continuity errors : sum local = 3.50789e-09, global = 3.40922e-19, cumulative = 1.56939e-18
ExecutionTime = 0.05 s  ClockTime = 0 s

Time = 0.235

Courant Number mean: 0.111069 max: 0.426063
smoothSolver:  Solving for Ux, Initial residual = 2.09454e-06, Final residual = 2.09454e-06, No Iterations 0
smoothSolver:  Solving for Uy, Initial residual = 3.75804e-06, Final residual = 3.75804e-06, No Iterations 0
DICPCG:  Solving for p, Initial residual = 8.9884e-07, Final residual = 8.9884e-07, No Iterations 0
time step continuity errors : sum local = 4.40171e-09, global = -7.44049e-20, cumulative = 1.49498e-18
DICPCG:  Solving for p, Initial residual = 1.09147e-06, Final residual = 6.67901e-07, No Iterations 1
time step continuity errors : sum local = 3.52654e-09, global = -1.02943e-19, cumulative = 1.39204e-18
ExecutionTime = 0.05 s  ClockTime = 0 s

Time = 0.2375

Courant Number mean: 0.111069 max: 0.426063
smoothSolver:  Solving for Ux, Initial residual = 2.02004e-06, Final residual = 2.02004e-06, No Iterations 0
smoothSolver:  Solving for Uy, Initial residual = 3.61956e-06, Final residual = 3.61956e-06, No Iterations 0
DICPCG:  Solving for p, Initial residual = 1.01692e-06, Final residual = 6.74676e-07, No Iterations 1
time step continuity errors : sum local = 3.55616e-09, global = 2.84757e-19, cumulative = 1.6768e-18
DICPCG:  Solving for p, Initial residual = 9.51089e-07, Final residual = 9.51089e-07, No Iterations 0
time step continuity errors : sum local = 4.60705e-09, global = -3.69212e-19, cumulative = 1.30758e-18
ExecutionTime = 0.05 s  ClockTime = 0 s

Time = 0.24

Courant Number mean: 0.11107 max: 0.426063
smoothSolver:  Solving for Ux, Initial residual = 1.9375e-06, Final residual = 1.9375e-06, No Iterations 0
smoothSolver:  Solving for Uy, Initial residual = 3.47402e-06, Final residual = 3.47402e-06, No Iterations 0
DICPCG:  Solving for p, Initial residual = 1.4449e-06, Final residual = 5.57991e-07, No Iterations 2
time step continuity errors : sum local = 3.12406e-09, global = -1.48727e-19, cumulative = 1.15886e-18
DICPCG:  Solving for p, Initial residual = 7.8175e-07, Final residual = 7.8175e-07, No Iterations 0
time step continuity errors : sum local = 3.97479e-09, global = 8.93355e-21, cumulative = 1.16779e-18
ExecutionTime = 0.05 s  ClockTime = 0 s

Time = 0.2425

Courant Number mean: 0.11107 max: 0.426063
smoothSolver:  Solving for Ux, Initial residual = 1.81168e-06, Final residual = 1.81168e-06, No Iterations 0
smoothSolver:  Solving for Uy, Initial residual = 3.26117e-06, Final residual = 3.26117e-06, No Iterations 0
DICPCG:  Solving for p, Initial residual = 1.12381e-06, Final residual = 6.08399e-07, No Iterations 1
time step continuity errors : sum local = 3.31774e-09, global = 6.13106e-19, cumulative = 1.7809e-18
DICPCG:  Solving for p, Initial residual = 8.25678e-07, Final residual = 8.25678e-07, No Iterations 0
time step continuity errors : sum local = 4.14363e-09, global = -7.95334e-20, cumulative = 1.70136e-18
ExecutionTime = 0.05 s  ClockTime = 0 s

Time = 0.245

Courant Number mean: 0.11107 max: 0.426063
smoothSolver:  Solving for Ux, Initial residual = 1.75515e-06, Final residual = 1.75515e-06, No Iterations 0
smoothSolver:  Solving for Uy, Initial residual = 3.15917e-06, Final residual = 3.15917e-06, No Iterations 0
DICPCG:  Solving for p, Initial residual = 1.34342e-06, Final residual = 4.41823e-07, No Iterations 1
time step continuity errors : sum local = 2.6876e-09, global = -1.54352e-19, cumulative = 1.54701e-18
DICPCG:  Solving for p, Initial residual = 8.06422e-07, Final residual = 8.06422e-07, No Iterations 0
time step continuity errors : sum local = 4.07272e-09, global = 6.20758e-19, cumulative = 2.16777e-18
ExecutionTime = 0.05 s  ClockTime = 0 s

Time = 0.2475

Courant Number mean: 0.11107 max: 0.426063
smoothSolver:  Solving for Ux, Initial residual = 1.67628e-06, Final residual = 1.67628e-06, No Iterations 0
smoothSolver:  Solving for Uy, Initial residual = 3.01532e-06, Final residual = 3.01532e-06, No Iterations 0
DICPCG:  Solving for p, Initial residual = 1.39972e-06, Final residual = 7.80595e-07, No Iterations 1
time step continuity errors : sum local = 3.97344e-09, global = 1.4637e-19, cumulative = 2.31414e-18
DICPCG:  Solving for p, Initial residual = 1.17801e-06, Final residual = 5.61563e-07, No Iterations 1
time step continuity errors : sum local = 3.1415e-09, global = -3.12302e-19, cumulative = 2.00184e-18
ExecutionTime = 0.05 s  ClockTime = 0 s

Time = 0.25

Courant Number mean: 0.11107 max: 0.426063
smoothSolver:  Solving for Ux, Initial residual = 1.58019e-06, Final residual = 1.58019e-06, No Iterations 0
smoothSolver:  Solving for Uy, Initial residual = 2.84719e-06, Final residual = 2.84719e-06, No Iterations 0
DICPCG:  Solving for p, Initial residual = 8.09614e-07, Final residual = 8.09614e-07, No Iterations 0
time step continuity errors : sum local = 4.08385e-09, global = -3.60237e-20, cumulative = 1.96581e-18
DICPCG:  Solving for p, Initial residual = 1.03509e-06, Final residual = 7.01e-07, No Iterations 1
time step continuity errors : sum local = 3.67362e-09, global = -1.22092e-19, cumulative = 1.84372e-18
ExecutionTime = 0.05 s  ClockTime = 0 s

Time = 0.2525

Courant Number mean: 0.111071 max: 0.426063
smoothSolver:  Solving for Ux, Initial residual = 1.50454e-06, Final residual = 1.50454e-06, No Iterations 0
smoothSolver:  Solving for Uy, Initial residual = 2.71461e-06, Final residual = 2.71461e-06, No Iterations 0
DICPCG:  Solving for p, Initial residual = 1.17412e-06, Final residual = 5.8107e-07, No Iterations 1
time step continuity errors : sum local = 3.22161e-09, global = -2.38145e-19, cumulative = 1.60558e-18
DICPCG:  Solving for p, Initial residual = 8.29756e-07, Final residual = 8.29756e-07, No Iterations 0
time step continuity errors : sum local = 4.16682e-09, global = 1.24491e-19, cumulative = 1.73007e-18
ExecutionTime = 0.06 s  ClockTime = 0 s

Time = 0.255

Courant Number mean: 0.111071 max: 0.426063
smoothSolver:  Solving for Ux, Initial residual = 1.44755e-06, Final residual = 1.44755e-06, No Iterations 0
smoothSolver:  Solving for Uy, Initial residual = 2.60764e-06, Final residual = 2.60764e-06, No Iterations 0
DICPCG:  Solving for p, Initial residual = 1.25202e-06, Final residual = 6.88793e-07, No Iterations 1
time step continuity errors : sum local = 3.63654e-09, global = 5.58802e-19, cumulative = 2.28887e-18
DICPCG:  Solving for p, Initial residual = 9.48671e-07, Final residual = 9.48671e-07, No Iterations 0
time step continuity errors : sum local = 4.62475e-09, global = 2.46293e-19, cumulative = 2.53516e-18
ExecutionTime = 0.06 s  ClockTime = 0 s

Time = 0.2575

Courant Number mean: 0.111071 max: 0.426063
smoothSolver:  Solving for Ux, Initial residual = 1.37605e-06, Final residual = 1.37605e-06, No Iterations 0
smoothSolver:  Solving for Uy, Initial residual = 2.48336e-06, Final residual = 2.48336e-06, No Iterations 0
DICPCG:  Solving for p, Initial residual = 1.37989e-06, Final residual = 7.22132e-07, No Iterations 1
time step continuity errors : sum local = 3.76972e-09, global = 9.04522e-20, cumulative = 2.62561e-18
DICPCG:  Solving for p, Initial residual = 1.08868e-06, Final residual = 6.33531e-07, No Iterations 1
time step continuity errors : sum local = 3.43864e-09, global = 4.01596e-19, cumulative = 3.02721e-18
ExecutionTime = 0.06 s  ClockTime = 0 s

Time = 0.26

Courant Number mean: 0.111071 max: 0.426063
smoothSolver:  Solving for Ux, Initial residual = 1.30573e-06, Final residual = 1.30573e-06, No Iterations 0
smoothSolver:  Solving for Uy, Initial residual = 2.36015e-06, Final residual = 2.36015e-06, No Iterations 0
DICPCG:  Solving for p, Initial residual = 7.67754e-07, Final residual = 7.67754e-07, No Iterations 0
time step continuity errors : sum local = 3.94883e-09, global = 2.91995e-19, cumulative = 3.31921e-18
DICPCG:  Solving for p, Initial residual = 8.76491e-07, Final residual = 8.76491e-07, No Iterations 0
time step continuity errors : sum local = 4.36193e-09, global = -3.29218e-20, cumulative = 3.28628e-18
ExecutionTime = 0.06 s  ClockTime = 0 s

Time = 0.2625

Courant Number mean: 0.111071 max: 0.426064
smoothSolver:  Solving for Ux, Initial residual = 1.25719e-06, Final residual = 1.25719e-06, No Iterations 0
smoothSolver:  Solving for Uy, Initial residual = 2.26971e-06, Final residual = 2.26971e-06, No Iterations 0
DICPCG:  Solving for p, Initial residual = 1.07834e-06, Final residual = 7.3123e-07, No Iterations 1
time step continuity errors : sum local = 3.81486e-09, global = 6.09632e-20, cumulative = 3.34725e-18
DICPCG:  Solving for p, Initial residual = 1.07382e-06, Final residual = 5.25349e-07, No Iterations 1
time step continuity errors : sum local = 3.03779e-09, global = 4.22358e-19, cumulative = 3.76961e-18
ExecutionTime = 0.06 s  ClockTime = 0 s

Time = 0.265

Courant Number mean: 0.111071 max: 0.426064
smoothSolver:  Solving for Ux, Initial residual = 1.18788e-06, Final residual = 1.18788e-06, No Iterations 0
smoothSolver:  Solving for Uy, Initial residual = 2.14963e-06, Final residual = 2.14963e-06, No Iterations 0
DICPCG:  Solving for p, Initial residual = 6.55216e-07, Final residual = 6.55216e-07, No Iterations 0
time step continuity errors : sum local = 3.53115e-09, global = 2.74459e-19, cumulative = 4.04406e-18
DICPCG:  Solving for p, Initial residual = 7.77647e-07, Final residual = 7.77647e-07, No Iterations 0
time step continuity errors : sum local = 3.99627e-09, global = -8.97491e-20, cumulative = 3.95431e-18
ExecutionTime = 0.06 s  ClockTime = 0 s

Time = 0.2675

Courant Number mean: 0.111071 max: 0.426064
smoothSolver:  Solving for Ux, Initial residual = 1.14329e-06, Final residual = 1.14329e-06, No Iterations 0
smoothSolver:  Solving for Uy, Initial residual = 2.0666e-06, Final residual = 2.0666e-06, No Iterations 0
DICPCG:  Solving for p, Initial residual = 9.88161e-07, Final residual = 9.88161e-07, No Iterations 0
time step continuity errors : sum local = 4.79602e-09, global = -3.62429e-19, cumulative = 3.59189e-18
DICPCG:  Solving for p, Initial residual = 1.17794e-06, Final residual = 7.96488e-07, No Iterations 1
time step continuity errors : sum local = 4.07102e-09, global = -8.71972e-19, cumulative = 2.71991e-18
ExecutionTime = 0.06 s  ClockTime = 0 s

Time = 0.27

Courant Number mean: 0.111072 max: 0.426064
smoothSolver:  Solving for Ux, Initial residual = 1.07808e-06, Final residual = 1.07808e-06, No Iterations 0
smoothSolver:  Solving for Uy, Initial residual = 1.94966e-06, Final residual = 1.94966e-06, No Iterations 0
DICPCG:  Solving for p, Initial residual = 1.34694e-06, Final residual = 5.52774e-07, No Iterations 1
time step continuity errors : sum local = 3.14939e-09, global = 1.31191e-19, cumulative = 2.8511e-18
DICPCG:  Solving for p, Initial residual = 7.20223e-07, Final residual = 7.20223e-07, No Iterations 0
time step continuity errors : sum local = 3.78554e-09, global = 1.79291e-19, cumulative = 3.0304e-18
ExecutionTime = 0.06 s  ClockTime = 0 s

Time = 0.2725

Courant Number mean: 0.111072 max: 0.426064
smoothSolver:  Solving for Ux, Initial residual = 1.03581e-06, Final residual = 1.03581e-06, No Iterations 0
smoothSolver:  Solving for Uy, Initial residual = 1.87551e-06, Final residual = 1.87551e-06, No Iterations 0
DICPCG:  Solving for p, Initial residual = 1.06299e-06, Final residual = 5.62199e-07, No Iterations 1
[...]
time step continuity errors : sum local = 1.68823e-09, global = 4.02051e-19, cumulative = 7.17101e-18
DICPCG:  Solving for p, Initial residual = 4.86671e-07, Final residual = 4.86671e-07, No Iterations 0
time step continuity errors : sum local = 2.66735e-09, global = -5.19676e-19, cumulative = 6.65134e-18
ExecutionTime = 0.12 s  ClockTime = 1 s

Time = 0.635

Courant Number mean: 0.111074 max: 0.426065
smoothSolver:  Solving for Ux, Initial residual = 2.25396e-08, Final residual = 2.25396e-08, No Iterations 0
smoothSolver:  Solving for Uy, Initial residual = 4.42752e-08, Final residual = 4.42752e-08, No Iterations 0
DICPCG:  Solving for p, Initial residual = 9.20916e-07, Final residual = 9.20916e-07, No Iterations 0
time step continuity errors : sum local = 4.31634e-09, global = 4.03664e-20, cumulative = 6.6917e-18
DICPCG:  Solving for p, Initial residual = 1.11778e-06, Final residual = 2.30536e-07, No Iterations 1
time step continuity errors : sum local = 1.69193e-09, global = 1.28875e-19, cumulative = 6.82058e-18
ExecutionTime = 0.12 s  ClockTime = 1 s

Time = 0.6375

Courant Number mean: 0.111074 max: 0.426065
smoothSolver:  Solving for Ux, Initial residual = 2.32831e-08, Final residual = 2.32831e-08, No Iterations 0
smoothSolver:  Solving for Uy, Initial residual = 4.56852e-08, Final residual = 4.56852e-08, No Iterations 0
DICPCG:  Solving for p, Initial residual = 5.75449e-07, Final residual = 5.75449e-07, No Iterations 0
time step continuity errors : sum local = 3.00042e-09, global = 3.69957e-19, cumulative = 7.19054e-18
DICPCG:  Solving for p, Initial residual = 7.73546e-07, Final residual = 7.73546e-07, No Iterations 0
time step continuity errors : sum local = 3.75247e-09, global = 1.43847e-19, cumulative = 7.33438e-18
ExecutionTime = 0.12 s  ClockTime = 1 s

Time = 0.64

Courant Number mean: 0.111074 max: 0.426065
smoothSolver:  Solving for Ux, Initial residual = 1.28213e-08, Final residual = 1.28213e-08, No Iterations 0
smoothSolver:  Solving for Uy, Initial residual = 2.52087e-08, Final residual = 2.52087e-08, No Iterations 0
DICPCG:  Solving for p, Initial residual = 1.00296e-06, Final residual = 2.25865e-07, No Iterations 1
time step continuity errors : sum local = 1.67068e-09, global = -1.68869e-19, cumulative = 7.16551e-18
DICPCG:  Solving for p, Initial residual = 4.24338e-07, Final residual = 4.24338e-07, No Iterations 0
time step continuity errors : sum local = 2.42433e-09, global = -2.85377e-20, cumulative = 7.13698e-18
ExecutionTime = 0.12 s  ClockTime = 1 s

Time = 0.6425

Courant Number mean: 0.111074 max: 0.426065
smoothSolver:  Solving for Ux, Initial residual = 1.8222e-08, Final residual = 1.8222e-08, No Iterations 0
smoothSolver:  Solving for Uy, Initial residual = 3.56331e-08, Final residual = 3.56331e-08, No Iterations 0
DICPCG:  Solving for p, Initial residual = 7.75572e-07, Final residual = 7.75572e-07, No Iterations 0
time step continuity errors : sum local = 3.75792e-09, global = -9.73178e-20, cumulative = 7.03966e-18
DICPCG:  Solving for p, Initial residual = 9.33374e-07, Final residual = 9.33374e-07, No Iterations 0
time step continuity errors : sum local = 4.35713e-09, global = -6.24315e-19, cumulative = 6.41534e-18
ExecutionTime = 0.12 s  ClockTime = 1 s

Time = 0.645

Courant Number mean: 0.111074 max: 0.426065
smoothSolver:  Solving for Ux, Initial residual = 1.01547e-08, Final residual = 1.01547e-08, No Iterations 0
smoothSolver:  Solving for Uy, Initial residual = 1.9866e-08, Final residual = 1.9866e-08, No Iterations 0
DICPCG:  Solving for p, Initial residual = 1.11685e-06, Final residual = 2.29383e-07, No Iterations 1
time step continuity errors : sum local = 1.6811e-09, global = -1.21389e-19, cumulative = 6.29395e-18
DICPCG:  Solving for p, Initial residual = 4.85781e-07, Final residual = 4.85781e-07, No Iterations 0
time step continuity errors : sum local = 2.65419e-09, global = 3.76326e-19, cumulative = 6.67028e-18
ExecutionTime = 0.13 s  ClockTime = 1 s

Time = 0.6475

Courant Number mean: 0.111074 max: 0.426065
smoothSolver:  Solving for Ux, Initial residual = 2.24441e-08, Final residual = 2.24441e-08, No Iterations 0
smoothSolver:  Solving for Uy, Initial residual = 4.40645e-08, Final residual = 4.40645e-08, No Iterations 0
DICPCG:  Solving for p, Initial residual = 9.19456e-07, Final residual = 9.19456e-07, No Iterations 0
time step continuity errors : sum local = 4.30047e-09, global = 2.92408e-19, cumulative = 6.96269e-18
DICPCG:  Solving for p, Initial residual = 1.11459e-06, Final residual = 2.25475e-07, No Iterations 1
time step continuity errors : sum local = 1.66293e-09, global = 1.29991e-19, cumulative = 7.09268e-18
ExecutionTime = 0.13 s  ClockTime = 1 s

Time = 0.65

Courant Number mean: 0.111074 max: 0.426065
smoothSolver:  Solving for Ux, Initial residual = 2.32812e-08, Final residual = 2.32812e-08, No Iterations 0
smoothSolver:  Solving for Uy, Initial residual = 4.54683e-08, Final residual = 4.54683e-08, No Iterations 0
DICPCG:  Solving for p, Initial residual = 5.6482e-07, Final residual = 5.6482e-07, No Iterations 0
time step continuity errors : sum local = 2.95128e-09, global = 3.82199e-19, cumulative = 7.47488e-18
DICPCG:  Solving for p, Initial residual = 7.63853e-07, Final residual = 7.63853e-07, No Iterations 0
time step continuity errors : sum local = 3.70706e-09, global = -1.24201e-19, cumulative = 7.35068e-18
ExecutionTime = 0.13 s  ClockTime = 1 s

Time = 0.6525

Courant Number mean: 0.111074 max: 0.426065
smoothSolver:  Solving for Ux, Initial residual = 1.28655e-08, Final residual = 1.28655e-08, No Iterations 0
smoothSolver:  Solving for Uy, Initial residual = 2.51075e-08, Final residual = 2.51075e-08, No Iterations 0
DICPCG:  Solving for p, Initial residual = 9.93578e-07, Final residual = 9.93578e-07, No Iterations 0
time step continuity errors : sum local = 4.5794e-09, global = 9.63252e-20, cumulative = 7.447e-18
DICPCG:  Solving for p, Initial residual = 1.1061e-06, Final residual = 2.2809e-07, No Iterations 1
time step continuity errors : sum local = 1.66995e-09, global = 3.30459e-20, cumulative = 7.48005e-18
ExecutionTime = 0.13 s  ClockTime = 1 s

Time = 0.655

Courant Number mean: 0.111074 max: 0.426065
smoothSolver:  Solving for Ux, Initial residual = 2.84338e-08, Final residual = 2.84338e-08, No Iterations 0
smoothSolver:  Solving for Uy, Initial residual = 5.5715e-08, Final residual = 5.5715e-08, No Iterations 0
DICPCG:  Solving for p, Initial residual = 6.68133e-07, Final residual = 6.68133e-07, No Iterations 0
time step continuity errors : sum local = 3.33991e-09, global = -4.22689e-19, cumulative = 7.05736e-18
DICPCG:  Solving for p, Initial residual = 9.12988e-07, Final residual = 9.12988e-07, No Iterations 0
time step continuity errors : sum local = 4.26967e-09, global = 2.29046e-19, cumulative = 7.28641e-18
ExecutionTime = 0.13 s  ClockTime = 1 s

Time = 0.6575

Courant Number mean: 0.111074 max: 0.426065
smoothSolver:  Solving for Ux, Initial residual = 1.58094e-08, Final residual = 1.58094e-08, No Iterations 0
smoothSolver:  Solving for Uy, Initial residual = 3.11244e-08, Final residual = 3.11244e-08, No Iterations 0
DICPCG:  Solving for p, Initial residual = 1.19562e-06, Final residual = 2.25307e-07, No Iterations 1
time step continuity errors : sum local = 1.65599e-09, global = -7.62247e-20, cumulative = 7.21018e-18
DICPCG:  Solving for p, Initial residual = 4.55138e-07, Final residual = 4.55138e-07, No Iterations 0
time step continuity errors : sum local = 2.52889e-09, global = 2.17962e-19, cumulative = 7.42814e-18
ExecutionTime = 0.13 s  ClockTime = 1 s

Time = 0.66

Courant Number mean: 0.111074 max: 0.426065
smoothSolver:  Solving for Ux, Initial residual = 2.13489e-08, Final residual = 2.13489e-08, No Iterations 0
smoothSolver:  Solving for Uy, Initial residual = 4.16297e-08, Final residual = 4.16297e-08, No Iterations 0
DICPCG:  Solving for p, Initial residual = 8.69663e-07, Final residual = 8.69663e-07, No Iterations 0
time step continuity errors : sum local = 4.10304e-09, global = -1.67256e-19, cumulative = 7.26089e-18
DICPCG:  Solving for p, Initial residual = 1.05621e-06, Final residual = 2.26275e-07, No Iterations 1
time step continuity errors : sum local = 1.65713e-09, global = -3.11351e-19, cumulative = 6.94954e-18
ExecutionTime = 0.13 s  ClockTime = 1 s

Time = 0.6625

Courant Number mean: 0.111074 max: 0.426065
smoothSolver:  Solving for Ux, Initial residual = 2.2326e-08, Final residual = 2.2326e-08, No Iterations 0
smoothSolver:  Solving for Uy, Initial residual = 4.37461e-08, Final residual = 4.37461e-08, No Iterations 0
DICPCG:  Solving for p, Initial residual = 5.54677e-07, Final residual = 5.54677e-07, No Iterations 0
time step continuity errors : sum local = 2.90284e-09, global = -2.95717e-19, cumulative = 6.65382e-18
DICPCG:  Solving for p, Initial residual = 7.4504e-07, Final residual = 7.4504e-07, No Iterations 0
time step continuity errors : sum local = 3.6255e-09, global = 6.08309e-19, cumulative = 7.26213e-18
ExecutionTime = 0.13 s  ClockTime = 1 s

Time = 0.665

Courant Number mean: 0.111074 max: 0.426065
smoothSolver:  Solving for Ux, Initial residual = 1.23256e-08, Final residual = 1.23256e-08, No Iterations 0
smoothSolver:  Solving for Uy, Initial residual = 2.42496e-08, Final residual = 2.42496e-08, No Iterations 0
DICPCG:  Solving for p, Initial residual = 9.64919e-07, Final residual = 9.64919e-07, No Iterations 0
time step continuity errors : sum local = 4.46022e-09, global = -1.2813e-19, cumulative = 7.134e-18
DICPCG:  Solving for p, Initial residual = 1.07265e-06, Final residual = 2.22378e-07, No Iterations 1
time step continuity errors : sum local = 1.63865e-09, global = 7.7755e-19, cumulative = 7.91155e-18
ExecutionTime = 0.13 s  ClockTime = 1 s

Time = 0.6675

Courant Number mean: 0.111074 max: 0.426065
smoothSolver:  Solving for Ux, Initial residual = 2.76498e-08, Final residual = 2.76498e-08, No Iterations 0
smoothSolver:  Solving for Uy, Initial residual = 5.38417e-08, Final residual = 5.38417e-08, No Iterations 0
DICPCG:  Solving for p, Initial residual = 6.40424e-07, Final residual = 6.40424e-07, No Iterations 0
time step continuity errors : sum local = 3.22629e-09, global = 3.41129e-19, cumulative = 8.25268e-18
DICPCG:  Solving for p, Initial residual = 8.79587e-07, Final residual = 8.79587e-07, No Iterations 0
time step continuity errors : sum local = 4.1346e-09, global = 5.75345e-19, cumulative = 8.82802e-18
ExecutionTime = 0.13 s  ClockTime = 1 s

Time = 0.67

Courant Number mean: 0.111074 max: 0.426065
smoothSolver:  Solving for Ux, Initial residual = 1.53986e-08, Final residual = 1.53986e-08, No Iterations 0
smoothSolver:  Solving for Uy, Initial residual = 3.00006e-08, Final residual = 3.00006e-08, No Iterations 0
DICPCG:  Solving for p, Initial residual = 1.1535e-06, Final residual = 2.2663e-07, No Iterations 1
time step continuity errors : sum local = 1.65231e-09, global = 2.90713e-19, cumulative = 9.11874e-18
DICPCG:  Solving for p, Initial residual = 4.54167e-07, Final residual = 4.54167e-07, No Iterations 0
time step continuity errors : sum local = 2.51563e-09, global = 3.46092e-19, cumulative = 9.46483e-18
ExecutionTime = 0.13 s  ClockTime = 1 s

Time = 0.6725

Courant Number mean: 0.111074 max: 0.426065
smoothSolver:  Solving for Ux, Initial residual = 2.08075e-08, Final residual = 2.08075e-08, No Iterations 0
smoothSolver:  Solving for Uy, Initial residual = 4.07571e-08, Final residual = 4.07571e-08, No Iterations 0
DICPCG:  Solving for p, Initial residual = 8.57482e-07, Final residual = 8.57482e-07, No Iterations 0
time step continuity errors : sum local = 4.04648e-09, global = 8.28835e-20, cumulative = 9.54771e-18
DICPCG:  Solving for p, Initial residual = 1.03938e-06, Final residual = 2.20684e-07, No Iterations 1
time step continuity errors : sum local = 1.62634e-09, global = -2.8546e-19, cumulative = 9.26225e-18
ExecutionTime = 0.13 s  ClockTime = 1 s

Time = 0.675

Courant Number mean: 0.111074 max: 0.426065
smoothSolver:  Solving for Ux, Initial residual = 2.19817e-08, Final residual = 2.19817e-08, No Iterations 0
smoothSolver:  Solving for Uy, Initial residual = 4.27804e-08, Final residual = 4.27804e-08, No Iterations 0
DICPCG:  Solving for p, Initial residual = 5.3478e-07, Final residual = 5.3478e-07, No Iterations 0
time step continuity errors : sum local = 2.81886e-09, global = -1.52904e-19, cumulative = 9.10935e-18
DICPCG:  Solving for p, Initial residual = 7.21756e-07, Final residual = 7.21756e-07, No Iterations 0
time step continuity errors : sum local = 3.52885e-09, global = 2.50222e-20, cumulative = 9.13437e-18
ExecutionTime = 0.13 s  ClockTime = 1 s

Time = 0.6775

Courant Number mean: 0.111074 max: 0.426065
smoothSolver:  Solving for Ux, Initial residual = 1.21923e-08, Final residual = 1.21923e-08, No Iterations 0
smoothSolver:  Solving for Uy, Initial residual = 2.3707e-08, Final residual = 2.3707e-08, No Iterations 0
DICPCG:  Solving for p, Initial residual = 9.37941e-07, Final residual = 9.37941e-07, No Iterations 0
time step continuity errors : sum local = 4.34978e-09, global = -4.1235e-19, cumulative = 8.72202e-18
DICPCG:  Solving for p, Initial residual = 1.04466e-06, Final residual = 2.23708e-07, No Iterations 1
time step continuity errors : sum local = 1.63501e-09, global = -1.6709e-20, cumulative = 8.70531e-18
ExecutionTime = 0.13 s  ClockTime = 1 s

Time = 0.68

Courant Number mean: 0.111074 max: 0.426065
smoothSolver:  Solving for Ux, Initial residual = 2.72244e-08, Final residual = 2.72244e-08, No Iterations 0
smoothSolver:  Solving for Uy, Initial residual = 5.32801e-08, Final residual = 5.32801e-08, No Iterations 0
DICPCG:  Solving for p, Initial residual = 6.39294e-07, Final residual = 6.39294e-07, No Iterations 0
time step continuity errors : sum local = 3.212e-09, global = -1.48438e-19, cumulative = 8.55687e-18
DICPCG:  Solving for p, Initial residual = 8.74766e-07, Final residual = 8.74766e-07, No Iterations 0
time step continuity errors : sum local = 4.10611e-09, global = -4.98583e-19, cumulative = 8.05829e-18
ExecutionTime = 0.13 s  ClockTime = 1 s

Time = 0.6825

Courant Number mean: 0.111074 max: 0.426065
smoothSolver:  Solving for Ux, Initial residual = 1.51839e-08, Final residual = 1.51839e-08, No Iterations 0
smoothSolver:  Solving for Uy, Initial residual = 2.96903e-08, Final residual = 2.96903e-08, No Iterations 0
DICPCG:  Solving for p, Initial residual = 1.14594e-06, Final residual = 2.20484e-07, No Iterations 1
time step continuity errors : sum local = 1.61936e-09, global = -1.49678e-19, cumulative = 7.90861e-18
DICPCG:  Solving for p, Initial residual = 4.41762e-07, Final residual = 4.41762e-07, No Iterations 0
time step continuity errors : sum local = 2.45982e-09, global = -1.09601e-19, cumulative = 7.79901e-18
ExecutionTime = 0.13 s  ClockTime = 1 s

Time = 0.685

Courant Number mean: 0.111074 max: 0.426065
smoothSolver:  Solving for Ux, Initial residual = 2.06234e-08, Final residual = 2.06234e-08, No Iterations 0
smoothSolver:  Solving for Uy, Initial residual = 4.02785e-08, Final residual = 4.02785e-08, No Iterations 0
DICPCG:  Solving for p, Initial residual = 8.36575e-07, Final residual = 8.36575e-07, No Iterations 0
time step continuity errors : sum local = 3.95913e-09, global = -1.15929e-19, cumulative = 7.68308e-18
DICPCG:  Solving for p, Initial residual = 1.01831e-06, Final residual = 2.22044e-07, No Iterations 1
time step continuity errors : sum local = 1.62284e-09, global = -5.08716e-21, cumulative = 7.67799e-18
ExecutionTime = 0.13 s  ClockTime = 1 s

Time = 0.6875

Courant Number mean: 0.111074 max: 0.426065
smoothSolver:  Solving for Ux, Initial residual = 2.17393e-08, Final residual = 2.17393e-08, No Iterations 0
smoothSolver:  Solving for Uy, Initial residual = 4.25868e-08, Final residual = 4.25868e-08, No Iterations 0
DICPCG:  Solving for p, Initial residual = 5.36968e-07, Final residual = 5.36968e-07, No Iterations 0
time step continuity errors : sum local = 2.81731e-09, global = -1.18039e-19, cumulative = 7.55995e-18
DICPCG:  Solving for p, Initial residual = 7.22179e-07, Final residual = 7.22179e-07, No Iterations 0
time step continuity errors : sum local = 3.52039e-09, global = -8.91701e-20, cumulative = 7.47078e-18
ExecutionTime = 0.13 s  ClockTime = 1 s

Time = 0.69

Courant Number mean: 0.111074 max: 0.426065
smoothSolver:  Solving for Ux, Initial residual = 1.20818e-08, Final residual = 1.20818e-08, No Iterations 0
smoothSolver:  Solving for Uy, Initial residual = 2.36134e-08, Final residual = 2.36134e-08, No Iterations 0
DICPCG:  Solving for p, Initial residual = 9.36758e-07, Final residual = 9.36758e-07, No Iterations 0
time step continuity errors : sum local = 4.33498e-09, global = 3.74961e-19, cumulative = 7.84575e-18
DICPCG:  Solving for p, Initial residual = 1.04206e-06, Final residual = 2.17675e-07, No Iterations 1
time step continuity errors : sum local = 1.60259e-09, global = 1.82021e-19, cumulative = 8.02777e-18
ExecutionTime = 0.13 s  ClockTime = 1 s

Time = 0.6925

Courant Number mean: 0.111074 max: 0.426065
smoothSolver:  Solving for Ux, Initial residual = 2.70658e-08, Final residual = 2.70658e-08, No Iterations 0
smoothSolver:  Solving for Uy, Initial residual = 5.28374e-08, Final residual = 5.28374e-08, No Iterations 0
DICPCG:  Solving for p, Initial residual = 6.26785e-07, Final residual = 6.26785e-07, No Iterations 0
time step continuity errors : sum local = 3.15637e-09, global = -3.52586e-19, cumulative = 7.67518e-18
DICPCG:  Solving for p, Initial residual = 8.60886e-07, Final residual = 8.60886e-07, No Iterations 0
time step continuity errors : sum local = 4.04546e-09, global = 7.38259e-20, cumulative = 7.74901e-18
ExecutionTime = 0.13 s  ClockTime = 1 s

Time = 0.695

Courant Number mean: 0.111074 max: 0.426065
smoothSolver:  Solving for Ux, Initial residual = 1.51085e-08, Final residual = 1.51085e-08, No Iterations 0
smoothSolver:  Solving for Uy, Initial residual = 2.94884e-08, Final residual = 2.94884e-08, No Iterations 0
DICPCG:  Solving for p, Initial residual = 1.12947e-06, Final residual = 2.22643e-07, No Iterations 1
time step continuity errors : sum local = 1.61907e-09, global = -2.76899e-19, cumulative = 7.47211e-18
DICPCG:  Solving for p, Initial residual = 4.43337e-07, Final residual = 4.43337e-07, No Iterations 0
time step continuity errors : sum local = 2.45636e-09, global = 1.35079e-19, cumulative = 7.60719e-18
ExecutionTime = 0.13 s  ClockTime = 1 s

Time = 0.6975

Courant Number mean: 0.111074 max: 0.426065
smoothSolver:  Solving for Ux, Initial residual = 2.05085e-08, Final residual = 2.05085e-08, No Iterations 0
smoothSolver:  Solving for Uy, Initial residual = 4.0187e-08, Final residual = 4.0187e-08, No Iterations 0
DICPCG:  Solving for p, Initial residual = 8.36567e-07, Final residual = 8.36567e-07, No Iterations 0
time step continuity errors : sum local = 3.94888e-09, global = -1.82517e-19, cumulative = 7.42467e-18
DICPCG:  Solving for p, Initial residual = 1.01604e-06, Final residual = 2.15879e-07, No Iterations 1
time step continuity errors : sum local = 1.59e-09, global = 3.22766e-19, cumulative = 7.74744e-18
ExecutionTime = 0.13 s  ClockTime = 1 s

Time = 0.7

Courant Number mean: 0.111074 max: 0.426065
smoothSolver:  Solving for Ux, Initial residual = 2.169e-08, Final residual = 2.169e-08, No Iterations 0
smoothSolver:  Solving for Uy, Initial residual = 4.22662e-08, Final residual = 4.22662e-08, No Iterations 0
DICPCG:  Solving for p, Initial residual = 5.2813e-07, Final residual = 5.2813e-07, No Iterations 0
time step continuity errors : sum local = 2.77559e-09, global = -1.63658e-19, cumulative = 7.58378e-18
DICPCG:  Solving for p, Initial residual = 7.13667e-07, Final residual = 7.13667e-07, No Iterations 0
time step continuity errors : sum local = 3.48013e-09, global = 3.44645e-19, cumulative = 7.92842e-18
ExecutionTime = 0.13 s  ClockTime = 1 s

End

